/*---------------------------------------------------------------------------*\
| =========                 |                                                 |
| \\      /  F ield         | OpenFOAM: The Open Source CFD Toolbox           |
|  \\    /   O peration     | Version:  2112                                  |
|   \\  /    A nd           | Website:  www.openfoam.com                      |
|    \\/     M anipulation  |                                                 |
\*---------------------------------------------------------------------------*/
Build  : _80318542-20220301 OPENFOAM=2112 patch=220310 version=2112
Arch   : "LSB;label=32;scalar=64"
Exec   : pisoFoam
Date   : Jun 20 2022
Time   : 16:08:43
Host   : c25fbfbb153a
PID    : 799
I/O    : uncollated
Case   : /data/OpenFOAM/foam-v2112/run/channelWithObstacle
nProcs : 1
trapFpe: Floating point exception trapping enabled (FOAM_SIGFPE).
fileModificationChecking : Monitoring run-time modified files using timeStampMaster (fileModificationSkew 5, maxFileModificationPolls 20)
allowSystemOperations : Allowing user-supplied system call operations

// * * * * * * * * * * * * * * * * * * * * * * * * * * * * * * * * * * * * * //
Create time

Create mesh for time = 0


PISO: Operating solver in PISO mode

Reading field p

Reading field U

Reading/calculating face flux field phi

Selecting incompressible transport model Newtonian
Selecting turbulence model type LES
Selecting LES turbulence model WALE
Selecting LES delta type cubeRootVol
--> FOAM Warning : 
    From void Foam::LESModels::cubeRootVolDelta::calcDelta()
    in file LES/LESdeltas/cubeRootVolDelta/cubeRootVolDelta.C at line 58
    Case is 2D, LES is not strictly applicable

LES
{
    LESModel        WALE;
    turbulence      on;
    printCoeffs     on;
    delta           cubeRootVol;
    cubeRootVolCoeffs
    {
        deltaCoeff      1;
    }
    PrandtlCoeffs
    {
        delta           cubeRootVol;
        cubeRootVolCoeffs
        {
            deltaCoeff      1;
        }
        smoothCoeffs
        {
            delta           cubeRootVol;
            cubeRootVolCoeffs
            {
                deltaCoeff      1;
            }
            maxDeltaRatio   1.1;
        }
        Cdelta          0.158;
    }
    vanDriestCoeffs
    {
        delta           cubeRootVol;
        cubeRootVolCoeffs
        {
            deltaCoeff      1;
        }
        smoothCoeffs
        {
            delta           cubeRootVol;
            cubeRootVolCoeffs
            {
                deltaCoeff      1;
            }
            maxDeltaRatio   1.1;
        }
        Aplus           26;
        Cdelta          0.158;
    }
    smoothCoeffs
    {
        delta           cubeRootVol;
        cubeRootVolCoeffs
        {
            deltaCoeff      1;
        }
        maxDeltaRatio   1.1;
    }
    Ck              0.094;
    Cw              0.325;
}

No MRF models present

No finite volume options present

Starting time loop

Time = 0.0001

Courant Number mean: 6.34921e-05 max: 0.005
smoothSolver:  Solving for Ux, Initial residual = 1, Final residual = 3.20453e-07, No Iterations 1
smoothSolver:  Solving for Uy, Initial residual = 1, Final residual = 1.69115e-07, No Iterations 1
DICPCG:  Solving for p, Initial residual = 1, Final residual = 0.0327443, No Iterations 50
time step continuity errors : sum local = 4.158e-06, global = 1.52772e-08, cumulative = 1.52772e-08
DICPCG:  Solving for p, Initial residual = 0.000212115, Final residual = 7.46588e-07, No Iterations 50
time step continuity errors : sum local = 1.47413e-08, global = -2.26296e-11, cumulative = 1.52545e-08
ExecutionTime = 0.03 s  ClockTime = 1 s

Time = 0.0002

Courant Number mean: 0.0105865 max: 0.0317695
smoothSolver:  Solving for Ux, Initial residual = 0.934433, Final residual = 6.17156e-10, No Iterations 2
smoothSolver:  Solving for Uy, Initial residual = 0.271491, Final residual = 6.17325e-06, No Iterations 1
DICPCG:  Solving for p, Initial residual = 0.010692, Final residual = 0.000502516, No Iterations 49
time step continuity errors : sum local = 9.85309e-06, global = -4.34568e-07, cumulative = -4.19313e-07
DICPCG:  Solving for p, Initial residual = 0.0419164, Final residual = 6.67668e-07, No Iterations 62
time step continuity errors : sum local = 1.7559e-10, global = 1.32978e-12, cumulative = -4.19312e-07
ExecutionTime = 0.04 s  ClockTime = 1 s

Time = 0.0003

Courant Number mean: 0.0107253 max: 0.0370574
smoothSolver:  Solving for Ux, Initial residual = 0.206705, Final residual = 5.76269e-06, No Iterations 1
smoothSolver:  Solving for Uy, Initial residual = 0.301164, Final residual = 7.55094e-06, No Iterations 1
DICPCG:  Solving for p, Initial residual = 0.485324, Final residual = 0.0211421, No Iterations 17
time step continuity errors : sum local = 3.70496e-06, global = -1.1434e-09, cumulative = -4.20455e-07
DICPCG:  Solving for p, Initial residual = 0.0350436, Final residual = 8.8645e-07, No Iterations 63
time step continuity errors : sum local = 9.89461e-11, global = 7.08616e-13, cumulative = -4.20455e-07
ExecutionTime = 0.04 s  ClockTime = 1 s

Time = 0.0004

Courant Number mean: 0.0107242 max: 0.0371582
smoothSolver:  Solving for Ux, Initial residual = 0.0129044, Final residual = 4.48733e-07, No Iterations 1
smoothSolver:  Solving for Uy, Initial residual = 0.0113943, Final residual = 4.61366e-07, No Iterations 1
DICPCG:  Solving for p, Initial residual = 0.273519, Final residual = 0.0119043, No Iterations 3
time step continuity errors : sum local = 6.46946e-07, global = 1.6802e-11, cumulative = -4.20438e-07
DICPCG:  Solving for p, Initial residual = 0.0158559, Final residual = 7.54639e-07, No Iterations 63
time step continuity errors : sum local = 3.12054e-11, global = -3.17169e-13, cumulative = -4.20438e-07
ExecutionTime = 0.04 s  ClockTime = 1 s

Time = 0.0005

Courant Number mean: 0.0107242 max: 0.0371023
smoothSolver:  Solving for Ux, Initial residual = 0.00774599, Final residual = 2.29021e-07, No Iterations 1
smoothSolver:  Solving for Uy, Initial residual = 0.00474086, Final residual = 1.95181e-07, No Iterations 1
DICPCG:  Solving for p, Initial residual = 0.139268, Final residual = 0.00439247, No Iterations 3
time step continuity errors : sum local = 1.61428e-07, global = 3.8434e-13, cumulative = -4.20438e-07
DICPCG:  Solving for p, Initial residual = 0.00509881, Final residual = 8.14306e-07, No Iterations 60
time step continuity errors : sum local = 2.6081e-11, global = 1.32819e-13, cumulative = -4.20438e-07
ExecutionTime = 0.05 s  ClockTime = 1 s

Time = 0.0006

Courant Number mean: 0.0107242 max: 0.0370211
smoothSolver:  Solving for Ux, Initial residual = 0.00610271, Final residual = 1.75125e-07, No Iterations 1
smoothSolver:  Solving for Uy, Initial residual = 0.00325126, Final residual = 1.38358e-07, No Iterations 1
DICPCG:  Solving for p, Initial residual = 0.0945493, Final residual = 0.00436309, No Iterations 3
time step continuity errors : sum local = 1.27465e-07, global = 1.42131e-12, cumulative = -4.20436e-07
DICPCG:  Solving for p, Initial residual = 0.00476601, Final residual = 7.17217e-07, No Iterations 60
time step continuity errors : sum local = 1.91708e-11, global = 1.93208e-13, cumulative = -4.20436e-07
ExecutionTime = 0.05 s  ClockTime = 1 s

Time = 0.0007

Courant Number mean: 0.0107244 max: 0.036937
smoothSolver:  Solving for Ux, Initial residual = 0.00505584, Final residual = 1.44435e-07, No Iterations 1
smoothSolver:  Solving for Uy, Initial residual = 0.00259353, Final residual = 1.15367e-07, No Iterations 1
DICPCG:  Solving for p, Initial residual = 0.0777417, Final residual = 0.00372861, No Iterations 3
time step continuity errors : sum local = 9.19391e-08, global = 1.26081e-12, cumulative = -4.20435e-07
DICPCG:  Solving for p, Initial residual = 0.00398595, Final residual = 5.83373e-07, No Iterations 60
time step continuity errors : sum local = 1.33978e-11, global = 8.40444e-14, cumulative = -4.20435e-07
ExecutionTime = 0.06 s  ClockTime = 1 s

Time = 0.0008

Courant Number mean: 0.0107245 max: 0.0368547
smoothSolver:  Solving for Ux, Initial residual = 0.00433692, Final residual = 1.23998e-07, No Iterations 1
smoothSolver:  Solving for Uy, Initial residual = 0.00220769, Final residual = 1.02087e-07, No Iterations 1
DICPCG:  Solving for p, Initial residual = 0.0655792, Final residual = 0.00263543, No Iterations 4
time step continuity errors : sum local = 5.65147e-08, global = 1.15503e-12, cumulative = -4.20434e-07
DICPCG:  Solving for p, Initial residual = 0.00287974, Final residual = 6.37878e-07, No Iterations 59
time step continuity errors : sum local = 1.29024e-11, global = -7.09778e-14, cumulative = -4.20434e-07
ExecutionTime = 0.06 s  ClockTime = 1 s

Time = 0.0009

Courant Number mean: 0.0107247 max: 0.0367754
smoothSolver:  Solving for Ux, Initial residual = 0.00379327, Final residual = 1.09454e-07, No Iterations 1
smoothSolver:  Solving for Uy, Initial residual = 0.00193573, Final residual = 9.25131e-08, No Iterations 1
DICPCG:  Solving for p, Initial residual = 0.0560275, Final residual = 0.00242317, No Iterations 4
time step continuity errors : sum local = 4.62338e-08, global = 1.18078e-12, cumulative = -4.20432e-07
DICPCG:  Solving for p, Initial residual = 0.00261398, Final residual = 5.83625e-07, No Iterations 59
time step continuity errors : sum local = 1.06061e-11, global = -1.12556e-13, cumulative = -4.20433e-07
ExecutionTime = 0.06 s  ClockTime = 1 s

Time = 0.001

Courant Number mean: 0.0107248 max: 0.036699
smoothSolver:  Solving for Ux, Initial residual = 0.0033694, Final residual = 9.8583e-08, No Iterations 1
smoothSolver:  Solving for Uy, Initial residual = 0.00174197, Final residual = 8.52761e-08, No Iterations 1
DICPCG:  Solving for p, Initial residual = 0.048315, Final residual = 0.00219007, No Iterations 4
time step continuity errors : sum local = 3.78405e-08, global = 1.1758e-12, cumulative = -4.20431e-07
DICPCG:  Solving for p, Initial residual = 0.00233624, Final residual = 9.33712e-07, No Iterations 58
time step continuity errors : sum local = 1.54813e-11, global = -7.05556e-14, cumulative = -4.20431e-07
ExecutionTime = 0.07 s  ClockTime = 1 s

Time = 0.0011

Courant Number mean: 0.010725 max: 0.0366251
smoothSolver:  Solving for Ux, Initial residual = 0.00304083, Final residual = 9.01472e-08, No Iterations 1
smoothSolver:  Solving for Uy, Initial residual = 0.00159285, Final residual = 7.9622e-08, No Iterations 1
DICPCG:  Solving for p, Initial residual = 0.042053, Final residual = 0.00195568, No Iterations 4
time step continuity errors : sum local = 3.10783e-08, global = 1.13347e-12, cumulative = -4.2043e-07
DICPCG:  Solving for p, Initial residual = 0.00206218, Final residual = 8.04933e-07, No Iterations 58
time step continuity errors : sum local = 1.23661e-11, global = -5.15401e-14, cumulative = -4.2043e-07
ExecutionTime = 0.07 s  ClockTime = 1 s

Time = 0.0012

Courant Number mean: 0.0107252 max: 0.0365535
smoothSolver:  Solving for Ux, Initial residual = 0.00277876, Final residual = 8.344e-08, No Iterations 1
smoothSolver:  Solving for Uy, Initial residual = 0.00147534, Final residual = 7.55297e-08, No Iterations 1
DICPCG:  Solving for p, Initial residual = 0.0368385, Final residual = 0.00174126, No Iterations 4
time step continuity errors : sum local = 2.57719e-08, global = 1.16024e-12, cumulative = -4.20429e-07
DICPCG:  Solving for p, Initial residual = 0.00182464, Final residual = 7.13584e-07, No Iterations 58
time step continuity errors : sum local = 1.02537e-11, global = 3.53493e-14, cumulative = -4.20429e-07
ExecutionTime = 0.08 s  ClockTime = 1 s

Time = 0.0013

Courant Number mean: 0.0107253 max: 0.0364843
smoothSolver:  Solving for Ux, Initial residual = 0.00256389, Final residual = 7.79238e-08, No Iterations 1
smoothSolver:  Solving for Uy, Initial residual = 0.00137836, Final residual = 7.25303e-08, No Iterations 1
DICPCG:  Solving for p, Initial residual = 0.0324275, Final residual = 0.00153984, No Iterations 4
time step continuity errors : sum local = 2.14644e-08, global = 1.16297e-12, cumulative = -4.20428e-07
DICPCG:  Solving for p, Initial residual = 0.0015993, Final residual = 9.99641e-07, No Iterations 57
time step continuity errors : sum local = 1.36131e-11, global = 3.52756e-14, cumulative = -4.20428e-07
ExecutionTime = 0.08 s  ClockTime = 1 s

Time = 0.0014

Courant Number mean: 0.0107255 max: 0.036418
smoothSolver:  Solving for Ux, Initial residual = 0.00238492, Final residual = 7.32922e-08, No Iterations 1
smoothSolver:  Solving for Uy, Initial residual = 0.00129705, Final residual = 6.97727e-08, No Iterations 1
DICPCG:  Solving for p, Initial residual = 0.028709, Final residual = 0.00136095, No Iterations 4
time step continuity errors : sum local = 1.80501e-08, global = 1.11192e-12, cumulative = -4.20427e-07
DICPCG:  Solving for p, Initial residual = 0.00140438, Final residual = 8.54735e-07, No Iterations 57
time step continuity errors : sum local = 1.11097e-11, global = 8.94481e-15, cumulative = -4.20427e-07
ExecutionTime = 0.08 s  ClockTime = 1 s

Time = 0.0015

Courant Number mean: 0.0107256 max: 0.0363546
smoothSolver:  Solving for Ux, Initial residual = 0.00223499, Final residual = 6.93595e-08, No Iterations 1
smoothSolver:  Solving for Uy, Initial residual = 0.00122912, Final residual = 6.72506e-08, No Iterations 1
DICPCG:  Solving for p, Initial residual = 0.0257358, Final residual = 0.00120038, No Iterations 4
time step continuity errors : sum local = 1.52393e-08, global = 1.14741e-12, cumulative = -4.20426e-07
DICPCG:  Solving for p, Initial residual = 0.00123225, Final residual = 7.30075e-07, No Iterations 57
time step continuity errors : sum local = 9.10263e-12, global = -1.42179e-14, cumulative = -4.20426e-07
ExecutionTime = 0.09 s  ClockTime = 1 s

Time = 0.0016

Courant Number mean: 0.0107258 max: 0.0362943
smoothSolver:  Solving for Ux, Initial residual = 0.00210733, Final residual = 6.59836e-08, No Iterations 1
smoothSolver:  Solving for Uy, Initial residual = 0.00117272, Final residual = 6.49864e-08, No Iterations 1
DICPCG:  Solving for p, Initial residual = 0.0233586, Final residual = 0.00105096, No Iterations 4
time step continuity errors : sum local = 1.28278e-08, global = 1.15334e-12, cumulative = -4.20425e-07
DICPCG:  Solving for p, Initial residual = 0.00107411, Final residual = 9.61962e-07, No Iterations 56
time step continuity errors : sum local = 1.15502e-11, global = -8.31761e-14, cumulative = -4.20425e-07
ExecutionTime = 0.09 s  ClockTime = 1 s

Time = 0.0017

Courant Number mean: 0.0107259 max: 0.036237
smoothSolver:  Solving for Ux, Initial residual = 0.00199774, Final residual = 6.3066e-08, No Iterations 1
smoothSolver:  Solving for Uy, Initial residual = 0.0011254, Final residual = 6.30053e-08, No Iterations 1
DICPCG:  Solving for p, Initial residual = 0.0213772, Final residual = 0.00100215, No Iterations 3
time step continuity errors : sum local = 1.18021e-08, global = 1.10109e-12, cumulative = -4.20424e-07
DICPCG:  Solving for p, Initial residual = 0.00101162, Final residual = 8.32878e-07, No Iterations 57
time step continuity errors : sum local = 9.66479e-12, global = -1.57906e-13, cumulative = -4.20424e-07
ExecutionTime = 0.1 s  ClockTime = 1 s

Time = 0.0018

Courant Number mean: 0.0107261 max: 0.0361824
smoothSolver:  Solving for Ux, Initial residual = 0.00190339, Final residual = 6.0586e-08, No Iterations 1
smoothSolver:  Solving for Uy, Initial residual = 0.00108589, Final residual = 6.11273e-08, No Iterations 1
DICPCG:  Solving for p, Initial residual = 0.0196731, Final residual = 0.000854386, No Iterations 3
time step continuity errors : sum local = 9.73616e-09, global = 1.12855e-12, cumulative = -4.20423e-07
DICPCG:  Solving for p, Initial residual = 0.00086033, Final residual = 9.52784e-07, No Iterations 56
time step continuity errors : sum local = 1.07093e-11, global = -1.66403e-13, cumulative = -4.20423e-07
ExecutionTime = 0.1 s  ClockTime = 1 s

Time = 0.0019

Courant Number mean: 0.0107262 max: 0.0361303
smoothSolver:  Solving for Ux, Initial residual = 0.00182151, Final residual = 5.84353e-08, No Iterations 1
smoothSolver:  Solving for Uy, Initial residual = 0.0010531, Final residual = 5.93924e-08, No Iterations 1
DICPCG:  Solving for p, Initial residual = 0.0182184, Final residual = 0.000727915, No Iterations 3
time step continuity errors : sum local = 8.0454e-09, global = 9.98223e-13, cumulative = -4.20422e-07
DICPCG:  Solving for p, Initial residual = 0.000734483, Final residual = 8.35237e-07, No Iterations 56
time step continuity errors : sum local = 9.11312e-12, global = -1.5363e-13, cumulative = -4.20422e-07
ExecutionTime = 0.11 s  ClockTime = 1 s

Time = 0.002

Courant Number mean: 0.0107263 max: 0.0360805
smoothSolver:  Solving for Ux, Initial residual = 0.0017499, Final residual = 5.6568e-08, No Iterations 1
smoothSolver:  Solving for Uy, Initial residual = 0.00102386, Final residual = 5.77781e-08, No Iterations 1
DICPCG:  Solving for p, Initial residual = 0.0171641, Final residual = 0.000622881, No Iterations 3
time step continuity errors : sum local = 6.6907e-09, global = 1.09582e-12, cumulative = -4.20421e-07
DICPCG:  Solving for p, Initial residual = 0.000631982, Final residual = 7.19537e-07, No Iterations 56
time step continuity errors : sum local = 7.63499e-12, global = -1.58588e-13, cumulative = -4.20421e-07
ExecutionTime = 0.11 s  ClockTime = 1 s

Time = 0.0021

Courant Number mean: 0.0107264 max: 0.0360327
smoothSolver:  Solving for Ux, Initial residual = 0.00168688, Final residual = 5.49289e-08, No Iterations 1
smoothSolver:  Solving for Uy, Initial residual = 0.000999042, Final residual = 5.62588e-08, No Iterations 1
DICPCG:  Solving for p, Initial residual = 0.0162355, Final residual = 0.00076446, No Iterations 2
time step continuity errors : sum local = 7.99628e-09, global = 1.04525e-12, cumulative = -4.2042e-07
DICPCG:  Solving for p, Initial residual = 0.000770651, Final residual = 8.35857e-07, No Iterations 56
time step continuity errors : sum local = 8.64537e-12, global = -1.50558e-13, cumulative = -4.2042e-07
ExecutionTime = 0.11 s  ClockTime = 1 s

Time = 0.0022

Courant Number mean: 0.0107266 max: 0.0359865
smoothSolver:  Solving for Ux, Initial residual = 0.00163103, Final residual = 5.34873e-08, No Iterations 1
smoothSolver:  Solving for Uy, Initial residual = 0.000977995, Final residual = 5.49939e-08, No Iterations 1
DICPCG:  Solving for p, Initial residual = 0.0153772, Final residual = 0.000664049, No Iterations 2
time step continuity errors : sum local = 6.77908e-09, global = 1.01574e-12, cumulative = -4.20419e-07
DICPCG:  Solving for p, Initial residual = 0.00066988, Final residual = 8.29456e-07, No Iterations 56
time step continuity errors : sum local = 8.38109e-12, global = -8.45093e-14, cumulative = -4.20419e-07
ExecutionTime = 0.12 s  ClockTime = 1 s

Time = 0.0023

Courant Number mean: 0.0107267 max: 0.0359419
smoothSolver:  Solving for Ux, Initial residual = 0.00158264, Final residual = 5.24613e-08, No Iterations 1
smoothSolver:  Solving for Uy, Initial residual = 0.00095951, Final residual = 5.40866e-08, No Iterations 1
DICPCG:  Solving for p, Initial residual = 0.0145874, Final residual = 0.000581368, No Iterations 2
time step continuity errors : sum local = 5.80251e-09, global = 1.14031e-12, cumulative = -4.20418e-07
DICPCG:  Solving for p, Initial residual = 0.000589, Final residual = 8.73257e-07, No Iterations 56
time step continuity errors : sum local = 8.63007e-12, global = -5.49511e-14, cumulative = -4.20418e-07
ExecutionTime = 0.12 s  ClockTime = 1 s

Time = 0.0024

Courant Number mean: 0.0107268 max: 0.0358986
smoothSolver:  Solving for Ux, Initial residual = 0.00154808, Final residual = 5.18696e-08, No Iterations 1
smoothSolver:  Solving for Uy, Initial residual = 0.000942789, Final residual = 5.3453e-08, No Iterations 1
DICPCG:  Solving for p, Initial residual = 0.0138743, Final residual = 0.000516559, No Iterations 2
time step continuity errors : sum local = 5.04603e-09, global = 1.12642e-12, cumulative = -4.20417e-07
DICPCG:  Solving for p, Initial residual = 0.000527146, Final residual = 8.89307e-07, No Iterations 56
time step continuity errors : sum local = 8.60494e-12, global = -6.33209e-14, cumulative = -4.20417e-07
ExecutionTime = 0.12 s  ClockTime = 1 s

Time = 0.0025

Courant Number mean: 0.0107269 max: 0.0358565
smoothSolver:  Solving for Ux, Initial residual = 0.00152658, Final residual = 5.13309e-08, No Iterations 1
smoothSolver:  Solving for Uy, Initial residual = 0.000927661, Final residual = 5.28495e-08, No Iterations 1
DICPCG:  Solving for p, Initial residual = 0.0132208, Final residual = 0.000473502, No Iterations 2
time step continuity errors : sum local = 4.53145e-09, global = 1.09604e-12, cumulative = -4.20416e-07
DICPCG:  Solving for p, Initial residual = 0.000483834, Final residual = 8.63219e-07, No Iterations 56
time step continuity errors : sum local = 8.18559e-12, global = -9.91629e-14, cumulative = -4.20416e-07
ExecutionTime = 0.13 s  ClockTime = 1 s

Time = 0.0026

Courant Number mean: 0.010727 max: 0.0358154
smoothSolver:  Solving for Ux, Initial residual = 0.00150632, Final residual = 5.0848e-08, No Iterations 1
smoothSolver:  Solving for Uy, Initial residual = 0.000913922, Final residual = 5.22785e-08, No Iterations 1
DICPCG:  Solving for p, Initial residual = 0.012669, Final residual = 0.000447253, No Iterations 2
time step continuity errors : sum local = 4.19849e-09, global = 1.06813e-12, cumulative = -4.20415e-07
DICPCG:  Solving for p, Initial residual = 0.000456156, Final residual = 7.99554e-07, No Iterations 56
time step continuity errors : sum local = 7.44234e-12, global = -1.36084e-13, cumulative = -4.20415e-07
ExecutionTime = 0.13 s  ClockTime = 1 s

Time = 0.0027

Courant Number mean: 0.0107271 max: 0.0357752
smoothSolver:  Solving for Ux, Initial residual = 0.00148717, Final residual = 5.04008e-08, No Iterations 1
smoothSolver:  Solving for Uy, Initial residual = 0.000902308, Final residual = 5.1766e-08, No Iterations 1
DICPCG:  Solving for p, Initial residual = 0.0121667, Final residual = 0.000429058, No Iterations 2
time step continuity errors : sum local = 3.95602e-09, global = 1.0578e-12, cumulative = -4.20414e-07
DICPCG:  Solving for p, Initial residual = 0.000437087, Final residual = 9.58679e-07, No Iterations 55
time step continuity errors : sum local = 8.7687e-12, global = -1.51445e-13, cumulative = -4.20414e-07
ExecutionTime = 0.14 s  ClockTime = 1 s

Time = 0.0028

Courant Number mean: 0.0107272 max: 0.0357358
smoothSolver:  Solving for Ux, Initial residual = 0.00146907, Final residual = 4.99879e-08, No Iterations 1
smoothSolver:  Solving for Uy, Initial residual = 0.000893157, Final residual = 5.12791e-08, No Iterations 1
DICPCG:  Solving for p, Initial residual = 0.01171, Final residual = 0.000419912, No Iterations 2
time step continuity errors : sum local = 3.80635e-09, global = 1.10389e-12, cumulative = -4.20413e-07
DICPCG:  Solving for p, Initial residual = 0.000429135, Final residual = 9.55634e-07, No Iterations 53
time step continuity errors : sum local = 8.5962e-12, global = 2.06601e-13, cumulative = -4.20413e-07
ExecutionTime = 0.15 s  ClockTime = 1 s

Time = 0.0029

Courant Number mean: 0.0107273 max: 0.0356973
smoothSolver:  Solving for Ux, Initial residual = 0.00145194, Final residual = 4.96142e-08, No Iterations 1
smoothSolver:  Solving for Uy, Initial residual = 0.000884787, Final residual = 5.08076e-08, No Iterations 1
DICPCG:  Solving for p, Initial residual = 0.0113132, Final residual = 0.000417089, No Iterations 2
time step continuity errors : sum local = 3.72016e-09, global = 1.50792e-12, cumulative = -4.20411e-07
DICPCG:  Solving for p, Initial residual = 0.000427528, Final residual = 9.62327e-07, No Iterations 52
time step continuity errors : sum local = 8.52109e-12, global = 1.89018e-13, cumulative = -4.20411e-07
ExecutionTime = 0.15 s  ClockTime = 1 s

Time = 0.003

Courant Number mean: 0.0107274 max: 0.0356595
smoothSolver:  Solving for Ux, Initial residual = 0.00143568, Final residual = 4.92377e-08, No Iterations 1
smoothSolver:  Solving for Uy, Initial residual = 0.000877309, Final residual = 5.03408e-08, No Iterations 1
DICPCG:  Solving for p, Initial residual = 0.0110028, Final residual = 0.000415927, No Iterations 2
time step continuity errors : sum local = 3.65371e-09, global = 1.33487e-12, cumulative = -4.2041e-07
DICPCG:  Solving for p, Initial residual = 0.000427148, Final residual = 9.16284e-07, No Iterations 53
time step continuity errors : sum local = 7.99414e-12, global = 2.38895e-13, cumulative = -4.2041e-07
ExecutionTime = 0.15 s  ClockTime = 1 s

Time = 0.0031

Courant Number mean: 0.0107274 max: 0.0356224
smoothSolver:  Solving for Ux, Initial residual = 0.00142032, Final residual = 4.88498e-08, No Iterations 1
smoothSolver:  Solving for Uy, Initial residual = 0.000870401, Final residual = 4.98737e-08, No Iterations 1
DICPCG:  Solving for p, Initial residual = 0.0107793, Final residual = 0.000414691, No Iterations 2
time step continuity errors : sum local = 3.59096e-09, global = 1.30903e-12, cumulative = -4.20408e-07
DICPCG:  Solving for p, Initial residual = 0.000425771, Final residual = 8.95119e-07, No Iterations 54
time step continuity errors : sum local = 7.70116e-12, global = 5.99545e-14, cumulative = -4.20408e-07
ExecutionTime = 0.16 s  ClockTime = 1 s

Time = 0.0032

Courant Number mean: 0.0107275 max: 0.0355858
smoothSolver:  Solving for Ux, Initial residual = 0.00140554, Final residual = 4.84506e-08, No Iterations 1
smoothSolver:  Solving for Uy, Initial residual = 0.000864141, Final residual = 4.94054e-08, No Iterations 1
DICPCG:  Solving for p, Initial residual = 0.0105743, Final residual = 0.000417309, No Iterations 2
time step continuity errors : sum local = 3.56516e-09, global = 1.10458e-12, cumulative = -4.20407e-07
DICPCG:  Solving for p, Initial residual = 0.000427376, Final residual = 8.19787e-07, No Iterations 54
time step continuity errors : sum local = 6.96116e-12, global = 3.76686e-14, cumulative = -4.20407e-07
ExecutionTime = 0.16 s  ClockTime = 1 s

Time = 0.0033

Courant Number mean: 0.0107276 max: 0.0355497
smoothSolver:  Solving for Ux, Initial residual = 0.00139136, Final residual = 4.80402e-08, No Iterations 1
smoothSolver:  Solving for Uy, Initial residual = 0.000858257, Final residual = 4.89256e-08, No Iterations 1
DICPCG:  Solving for p, Initial residual = 0.0103747, Final residual = 0.000423031, No Iterations 2
time step continuity errors : sum local = 3.56853e-09, global = 1.15726e-12, cumulative = -4.20406e-07
DICPCG:  Solving for p, Initial residual = 0.000431826, Final residual = 8.79892e-07, No Iterations 53
time step continuity errors : sum local = 7.38011e-12, global = 1.97782e-13, cumulative = -4.20406e-07
ExecutionTime = 0.16 s  ClockTime = 1 s

Time = 0.0034

Courant Number mean: 0.0107277 max: 0.0355139
smoothSolver:  Solving for Ux, Initial residual = 0.00137772, Final residual = 4.76206e-08, No Iterations 1
smoothSolver:  Solving for Uy, Initial residual = 0.000852744, Final residual = 4.8431e-08, No Iterations 1
DICPCG:  Solving for p, Initial residual = 0.0101788, Final residual = 0.000427971, No Iterations 2
time step continuity errors : sum local = 3.56748e-09, global = 1.33386e-12, cumulative = -4.20404e-07
DICPCG:  Solving for p, Initial residual = 0.000437527, Final residual = 7.7011e-07, No Iterations 53
time step continuity errors : sum local = 6.38505e-12, global = 2.42037e-13, cumulative = -4.20404e-07
ExecutionTime = 0.17 s  ClockTime = 1 s

Time = 0.0035

Courant Number mean: 0.0107278 max: 0.0354784
smoothSolver:  Solving for Ux, Initial residual = 0.00136454, Final residual = 4.71887e-08, No Iterations 1
smoothSolver:  Solving for Uy, Initial residual = 0.000847644, Final residual = 4.79208e-08, No Iterations 1
DICPCG:  Solving for p, Initial residual = 0.00998375, Final residual = 0.00043033, No Iterations 2
time step continuity errors : sum local = 3.54725e-09, global = 1.35339e-12, cumulative = -4.20403e-07
DICPCG:  Solving for p, Initial residual = 0.000440412, Final residual = 7.93062e-07, No Iterations 53
time step continuity errors : sum local = 6.50429e-12, global = 2.89794e-13, cumulative = -4.20403e-07
ExecutionTime = 0.17 s  ClockTime = 1 s

Time = 0.0036

Courant Number mean: 0.0107278 max: 0.0354429
smoothSolver:  Solving for Ux, Initial residual = 0.00135213, Final residual = 4.67457e-08, No Iterations 1
smoothSolver:  Solving for Uy, Initial residual = 0.0008431, Final residual = 4.73974e-08, No Iterations 1
DICPCG:  Solving for p, Initial residual = 0.00978614, Final residual = 0.000432703, No Iterations 2
time step continuity errors : sum local = 3.52941e-09, global = 1.38478e-12, cumulative = -4.20401e-07
DICPCG:  Solving for p, Initial residual = 0.000442543, Final residual = 9.18041e-07, No Iterations 53
time step continuity errors : sum local = 7.45238e-12, global = 3.64505e-13, cumulative = -4.20401e-07
ExecutionTime = 0.17 s  ClockTime = 1 s

Time = 0.0037

Courant Number mean: 0.0107279 max: 0.0354075
smoothSolver:  Solving for Ux, Initial residual = 0.00134016, Final residual = 4.62973e-08, No Iterations 1
smoothSolver:  Solving for Uy, Initial residual = 0.000839091, Final residual = 4.68915e-08, No Iterations 1
DICPCG:  Solving for p, Initial residual = 0.00958175, Final residual = 0.000432972, No Iterations 2
time step continuity errors : sum local = 3.49684e-09, global = 1.45038e-12, cumulative = -4.20399e-07
DICPCG:  Solving for p, Initial residual = 0.000442801, Final residual = 8.16414e-07, No Iterations 54
time step continuity errors : sum local = 6.56427e-12, global = 2.37282e-13, cumulative = -4.20399e-07
ExecutionTime = 0.18 s  ClockTime = 1 s

Time = 0.0038

Courant Number mean: 0.010728 max: 0.035372
smoothSolver:  Solving for Ux, Initial residual = 0.00132858, Final residual = 4.58441e-08, No Iterations 1
smoothSolver:  Solving for Uy, Initial residual = 0.000835385, Final residual = 4.6429e-08, No Iterations 1
DICPCG:  Solving for p, Initial residual = 0.00937136, Final residual = 0.00043192, No Iterations 2
time step continuity errors : sum local = 3.45611e-09, global = 1.30196e-12, cumulative = -4.20398e-07
DICPCG:  Solving for p, Initial residual = 0.000441641, Final residual = 9.1025e-07, No Iterations 54
time step continuity errors : sum local = 7.25283e-12, global = 2.70272e-13, cumulative = -4.20398e-07
ExecutionTime = 0.18 s  ClockTime = 1 s

Time = 0.0039

Courant Number mean: 0.0107281 max: 0.0353365
smoothSolver:  Solving for Ux, Initial residual = 0.00131733, Final residual = 4.53904e-08, No Iterations 1
smoothSolver:  Solving for Uy, Initial residual = 0.000832015, Final residual = 4.59546e-08, No Iterations 1
DICPCG:  Solving for p, Initial residual = 0.00915743, Final residual = 0.00042945, No Iterations 2
time step continuity errors : sum local = 3.40619e-09, global = 1.39503e-12, cumulative = -4.20396e-07
DICPCG:  Solving for p, Initial residual = 0.000438798, Final residual = 9.63682e-07, No Iterations 54
time step continuity errors : sum local = 7.61269e-12, global = 2.90554e-13, cumulative = -4.20396e-07
ExecutionTime = 0.19 s  ClockTime = 1 s

Time = 0.004

Courant Number mean: 0.0107281 max: 0.0353007
smoothSolver:  Solving for Ux, Initial residual = 0.00130641, Final residual = 4.49567e-08, No Iterations 1
smoothSolver:  Solving for Uy, Initial residual = 0.000828807, Final residual = 4.54673e-08, No Iterations 1
DICPCG:  Solving for p, Initial residual = 0.00894252, Final residual = 0.000425992, No Iterations 2
time step continuity errors : sum local = 3.35049e-09, global = 1.39331e-12, cumulative = -4.20394e-07
DICPCG:  Solving for p, Initial residual = 0.000434951, Final residual = 9.79208e-07, No Iterations 54
time step continuity errors : sum local = 7.67197e-12, global = 2.88793e-13, cumulative = -4.20394e-07
ExecutionTime = 0.2 s  ClockTime = 1 s

Time = 0.0041

Courant Number mean: 0.0107282 max: 0.0352648
smoothSolver:  Solving for Ux, Initial residual = 0.00129582, Final residual = 4.4525e-08, No Iterations 1
smoothSolver:  Solving for Uy, Initial residual = 0.00082573, Final residual = 4.49678e-08, No Iterations 1
DICPCG:  Solving for p, Initial residual = 0.00874071, Final residual = 0.000422548, No Iterations 2
time step continuity errors : sum local = 3.29681e-09, global = 1.36747e-12, cumulative = -4.20393e-07
DICPCG:  Solving for p, Initial residual = 0.000430659, Final residual = 9.74545e-07, No Iterations 54
time step continuity errors : sum local = 7.57552e-12, global = 2.67495e-13, cumulative = -4.20393e-07
ExecutionTime = 0.2 s  ClockTime = 1 s

Time = 0.0042

Courant Number mean: 0.0107283 max: 0.0352286
smoothSolver:  Solving for Ux, Initial residual = 0.00128557, Final residual = 4.40973e-08, No Iterations 1
smoothSolver:  Solving for Uy, Initial residual = 0.000822718, Final residual = 4.44589e-08, No Iterations 1
DICPCG:  Solving for p, Initial residual = 0.00855259, Final residual = 0.000418542, No Iterations 2
time step continuity errors : sum local = 3.24042e-09, global = 1.33017e-12, cumulative = -4.20391e-07
DICPCG:  Solving for p, Initial residual = 0.000425349, Final residual = 9.59391e-07, No Iterations 54
time step continuity errors : sum local = 7.40125e-12, global = 2.32696e-13, cumulative = -4.20391e-07
ExecutionTime = 0.21 s  ClockTime = 1 s

Time = 0.0043

Courant Number mean: 0.0107283 max: 0.0351921
smoothSolver:  Solving for Ux, Initial residual = 0.00127564, Final residual = 4.36735e-08, No Iterations 1
smoothSolver:  Solving for Uy, Initial residual = 0.000819749, Final residual = 4.39472e-08, No Iterations 1
DICPCG:  Solving for p, Initial residual = 0.00839127, Final residual = 0.000414294, No Iterations 2
time step continuity errors : sum local = 3.18366e-09, global = 1.28934e-12, cumulative = -4.2039e-07
DICPCG:  Solving for p, Initial residual = 0.00041924, Final residual = 9.41416e-07, No Iterations 54
time step continuity errors : sum local = 7.20931e-12, global = 1.92283e-13, cumulative = -4.20389e-07
ExecutionTime = 0.21 s  ClockTime = 1 s

Time = 0.0044

Courant Number mean: 0.0107284 max: 0.0351554
smoothSolver:  Solving for Ux, Initial residual = 0.00126596, Final residual = 4.32548e-08, No Iterations 1
smoothSolver:  Solving for Uy, Initial residual = 0.000816872, Final residual = 4.34288e-08, No Iterations 1
DICPCG:  Solving for p, Initial residual = 0.00822834, Final residual = 0.000408256, No Iterations 2
time step continuity errors : sum local = 3.11461e-09, global = 1.25248e-12, cumulative = -4.20388e-07
DICPCG:  Solving for p, Initial residual = 0.000411701, Final residual = 9.31578e-07, No Iterations 54
time step continuity errors : sum local = 7.08309e-12, global = 1.63191e-13, cumulative = -4.20388e-07
ExecutionTime = 0.21 s  ClockTime = 1 s

Time = 0.0045

Courant Number mean: 0.0107285 max: 0.0351184
smoothSolver:  Solving for Ux, Initial residual = 0.00125655, Final residual = 4.28429e-08, No Iterations 1
smoothSolver:  Solving for Uy, Initial residual = 0.000814134, Final residual = 4.29011e-08, No Iterations 1
DICPCG:  Solving for p, Initial residual = 0.00806462, Final residual = 0.000402101, No Iterations 2
time step continuity errors : sum local = 3.04642e-09, global = 1.23791e-12, cumulative = -4.20387e-07
DICPCG:  Solving for p, Initial residual = 0.000404629, Final residual = 9.16794e-07, No Iterations 54
time step continuity errors : sum local = 6.92389e-12, global = 1.39558e-13, cumulative = -4.20387e-07
ExecutionTime = 0.21 s  ClockTime = 1 s

Time = 0.0046

Courant Number mean: 0.0107285 max: 0.0350812
smoothSolver:  Solving for Ux, Initial residual = 0.00124737, Final residual = 4.24377e-08, No Iterations 1
smoothSolver:  Solving for Uy, Initial residual = 0.000811371, Final residual = 4.23644e-08, No Iterations 1
DICPCG:  Solving for p, Initial residual = 0.00790818, Final residual = 0.000395031, No Iterations 2
time step continuity errors : sum local = 2.97407e-09, global = 1.22355e-12, cumulative = -4.20385e-07
DICPCG:  Solving for p, Initial residual = 0.000397008, Final residual = 9.01989e-07, No Iterations 54
time step continuity errors : sum local = 6.77238e-12, global = 1.19451e-13, cumulative = -4.20385e-07
ExecutionTime = 0.22 s  ClockTime = 1 s

Time = 0.0047

Courant Number mean: 0.0107286 max: 0.0350436
smoothSolver:  Solving for Ux, Initial residual = 0.0012384, Final residual = 4.20391e-08, No Iterations 1
smoothSolver:  Solving for Uy, Initial residual = 0.000808598, Final residual = 4.18367e-08, No Iterations 1
DICPCG:  Solving for p, Initial residual = 0.00774818, Final residual = 0.000286039, No Iterations 3
time step continuity errors : sum local = 2.14116e-09, global = 1.17942e-12, cumulative = -4.20384e-07
DICPCG:  Solving for p, Initial residual = 0.000283617, Final residual = 9.05751e-07, No Iterations 53
time step continuity errors : sum local = 6.76154e-12, global = 5.89025e-14, cumulative = -4.20384e-07
ExecutionTime = 0.22 s  ClockTime = 1 s

Time = 0.0048

Courant Number mean: 0.0107287 max: 0.0350058
smoothSolver:  Solving for Ux, Initial residual = 0.00122966, Final residual = 4.16476e-08, No Iterations 1
smoothSolver:  Solving for Uy, Initial residual = 0.000805913, Final residual = 4.13101e-08, No Iterations 1
DICPCG:  Solving for p, Initial residual = 0.00760108, Final residual = 0.000278667, No Iterations 3
time step continuity errors : sum local = 2.07531e-09, global = 1.18659e-12, cumulative = -4.20383e-07
DICPCG:  Solving for p, Initial residual = 0.000277383, Final residual = 9.0018e-07, No Iterations 53
time step continuity errors : sum local = 6.68913e-12, global = 5.12485e-14, cumulative = -4.20383e-07
ExecutionTime = 0.23 s  ClockTime = 1 s

Time = 0.0049

Courant Number mean: 0.0107287 max: 0.0349676
smoothSolver:  Solving for Ux, Initial residual = 0.00122112, Final residual = 4.1264e-08, No Iterations 1
smoothSolver:  Solving for Uy, Initial residual = 0.000803393, Final residual = 4.07977e-08, No Iterations 1
DICPCG:  Solving for p, Initial residual = 0.00745179, Final residual = 0.000271051, No Iterations 3
time step continuity errors : sum local = 2.00945e-09, global = 1.17943e-12, cumulative = -4.20382e-07
DICPCG:  Solving for p, Initial residual = 0.000271381, Final residual = 8.88142e-07, No Iterations 53
time step continuity errors : sum local = 6.57006e-12, global = 5.1384e-14, cumulative = -4.20382e-07
ExecutionTime = 0.23 s  ClockTime = 1 s

Time = 0.005

Courant Number mean: 0.0107288 max: 0.0349292
smoothSolver:  Solving for Ux, Initial residual = 0.0012128, Final residual = 4.08885e-08, No Iterations 1
smoothSolver:  Solving for Uy, Initial residual = 0.000800813, Final residual = 4.03106e-08, No Iterations 1
DICPCG:  Solving for p, Initial residual = 0.00730092, Final residual = 0.000263152, No Iterations 3
time step continuity errors : sum local = 1.94241e-09, global = 1.17785e-12, cumulative = -4.2038e-07
DICPCG:  Solving for p, Initial residual = 0.00026495, Final residual = 8.66432e-07, No Iterations 53
time step continuity errors : sum local = 6.38247e-12, global = 5.61958e-14, cumulative = -4.2038e-07
ExecutionTime = 0.23 s  ClockTime = 1 s

Time = 0.0051

Courant Number mean: 0.0107288 max: 0.0348906
smoothSolver:  Solving for Ux, Initial residual = 0.00120465, Final residual = 4.05242e-08, No Iterations 1
smoothSolver:  Solving for Uy, Initial residual = 0.000798205, Final residual = 3.9818e-08, No Iterations 1
DICPCG:  Solving for p, Initial residual = 0.00714912, Final residual = 0.00025521, No Iterations 3
time step continuity errors : sum local = 1.87595e-09, global = 1.17739e-12, cumulative = -4.20379e-07
DICPCG:  Solving for p, Initial residual = 0.000258349, Final residual = 8.37935e-07, No Iterations 53
time step continuity errors : sum local = 6.14702e-12, global = 6.05399e-14, cumulative = -4.20379e-07
ExecutionTime = 0.24 s  ClockTime = 1 s

Time = 0.0052

Courant Number mean: 0.0107289 max: 0.0348516
smoothSolver:  Solving for Ux, Initial residual = 0.00119669, Final residual = 4.01892e-08, No Iterations 1
smoothSolver:  Solving for Uy, Initial residual = 0.000795512, Final residual = 3.93198e-08, No Iterations 1
DICPCG:  Solving for p, Initial residual = 0.00700054, Final residual = 0.000349788, No Iterations 2
time step continuity errors : sum local = 2.56058e-09, global = 1.19465e-12, cumulative = -4.20378e-07
DICPCG:  Solving for p, Initial residual = 0.000350125, Final residual = 8.01778e-07, No Iterations 54
time step continuity errors : sum local = 5.85838e-12, global = 7.73602e-14, cumulative = -4.20378e-07
ExecutionTime = 0.24 s  ClockTime = 1 s

Time = 0.0053

Courant Number mean: 0.010729 max: 0.0348125
smoothSolver:  Solving for Ux, Initial residual = 0.00118891, Final residual = 3.98822e-08, No Iterations 1
smoothSolver:  Solving for Uy, Initial residual = 0.000792721, Final residual = 3.88166e-08, No Iterations 1
DICPCG:  Solving for p, Initial residual = 0.00686085, Final residual = 0.000342127, No Iterations 2
time step continuity errors : sum local = 2.49429e-09, global = 1.2002e-12, cumulative = -4.20377e-07
DICPCG:  Solving for p, Initial residual = 0.000342373, Final residual = 7.87181e-07, No Iterations 54
time step continuity errors : sum local = 5.72834e-12, global = 7.64654e-14, cumulative = -4.20377e-07
ExecutionTime = 0.25 s  ClockTime = 1 s

Time = 0.0054

Courant Number mean: 0.010729 max: 0.0347731
smoothSolver:  Solving for Ux, Initial residual = 0.00118135, Final residual = 3.95885e-08, No Iterations 1
smoothSolver:  Solving for Uy, Initial residual = 0.000790036, Final residual = 3.83092e-08, No Iterations 1
DICPCG:  Solving for p, Initial residual = 0.00672819, Final residual = 0.00033462, No Iterations 2
time step continuity errors : sum local = 2.42979e-09, global = 1.19696e-12, cumulative = -4.20375e-07
DICPCG:  Solving for p, Initial residual = 0.00033472, Final residual = 7.73765e-07, No Iterations 54
time step continuity errors : sum local = 5.60838e-12, global = 7.6592e-14, cumulative = -4.20375e-07
ExecutionTime = 0.25 s  ClockTime = 1 s

Time = 0.0055

Courant Number mean: 0.0107291 max: 0.0347334
smoothSolver:  Solving for Ux, Initial residual = 0.00117395, Final residual = 3.93e-08, No Iterations 1
smoothSolver:  Solving for Uy, Initial residual = 0.000788396, Final residual = 3.78641e-08, No Iterations 1
DICPCG:  Solving for p, Initial residual = 0.00661186, Final residual = 0.000327242, No Iterations 2
time step continuity errors : sum local = 2.36686e-09, global = 1.19847e-12, cumulative = -4.20374e-07
DICPCG:  Solving for p, Initial residual = 0.00032745, Final residual = 7.59439e-07, No Iterations 54
time step continuity errors : sum local = 5.48299e-12, global = 7.7202e-14, cumulative = -4.20374e-07
ExecutionTime = 0.25 s  ClockTime = 1 s

Time = 0.0056

Courant Number mean: 0.0107291 max: 0.0346936
smoothSolver:  Solving for Ux, Initial residual = 0.00116669, Final residual = 3.90171e-08, No Iterations 1
smoothSolver:  Solving for Uy, Initial residual = 0.000786854, Final residual = 3.74346e-08, No Iterations 1
DICPCG:  Solving for p, Initial residual = 0.00650112, Final residual = 0.000319587, No Iterations 2
time step continuity errors : sum local = 2.3028e-09, global = 1.20014e-12, cumulative = -4.20373e-07
DICPCG:  Solving for p, Initial residual = 0.000319738, Final residual = 9.84118e-07, No Iterations 53
time step continuity errors : sum local = 7.07955e-12, global = 1.83724e-13, cumulative = -4.20373e-07
ExecutionTime = 0.26 s  ClockTime = 1 s

Time = 0.0057

Courant Number mean: 0.0107292 max: 0.0346535
smoothSolver:  Solving for Ux, Initial residual = 0.00115968, Final residual = 3.87402e-08, No Iterations 1
smoothSolver:  Solving for Uy, Initial residual = 0.000785479, Final residual = 3.7002e-08, No Iterations 1
DICPCG:  Solving for p, Initial residual = 0.00638788, Final residual = 0.000312118, No Iterations 2
time step continuity errors : sum local = 2.24095e-09, global = 1.37471e-12, cumulative = -4.20371e-07
DICPCG:  Solving for p, Initial residual = 0.000312212, Final residual = 9.61074e-07, No Iterations 53
time step continuity errors : sum local = 6.88927e-12, global = 1.76699e-13, cumulative = -4.20371e-07
ExecutionTime = 0.26 s  ClockTime = 1 s

Time = 0.0058

Courant Number mean: 0.0107292 max: 0.0346132
smoothSolver:  Solving for Ux, Initial residual = 0.00115285, Final residual = 3.84716e-08, No Iterations 1
smoothSolver:  Solving for Uy, Initial residual = 0.000783997, Final residual = 3.65781e-08, No Iterations 1
DICPCG:  Solving for p, Initial residual = 0.00627556, Final residual = 0.00030538, No Iterations 2
time step continuity errors : sum local = 2.18475e-09, global = 1.28243e-12, cumulative = -4.2037e-07
DICPCG:  Solving for p, Initial residual = 0.000305277, Final residual = 9.15642e-07, No Iterations 53
time step continuity errors : sum local = 6.53999e-12, global = 1.67562e-13, cumulative = -4.2037e-07
ExecutionTime = 0.27 s  ClockTime = 1 s

Time = 0.0059

Courant Number mean: 0.0107293 max: 0.0345727
smoothSolver:  Solving for Ux, Initial residual = 0.00114621, Final residual = 3.82097e-08, No Iterations 1
smoothSolver:  Solving for Uy, Initial residual = 0.00078254, Final residual = 3.61662e-08, No Iterations 1
DICPCG:  Solving for p, Initial residual = 0.00615538, Final residual = 0.000298647, No Iterations 2
time step continuity errors : sum local = 2.12892e-09, global = 1.27749e-12, cumulative = -4.20368e-07
DICPCG:  Solving for p, Initial residual = 0.000298054, Final residual = 8.89296e-07, No Iterations 53
time step continuity errors : sum local = 6.32903e-12, global = 1.61071e-13, cumulative = -4.20368e-07
ExecutionTime = 0.27 s  ClockTime = 1 s

Time = 0.006

Courant Number mean: 0.0107294 max: 0.034532
smoothSolver:  Solving for Ux, Initial residual = 0.00113977, Final residual = 3.79676e-08, No Iterations 1
smoothSolver:  Solving for Uy, Initial residual = 0.000780961, Final residual = 3.5753e-08, No Iterations 1
DICPCG:  Solving for p, Initial residual = 0.00603599, Final residual = 0.000291872, No Iterations 2
time step continuity errors : sum local = 2.07361e-09, global = 1.27589e-12, cumulative = -4.20367e-07
DICPCG:  Solving for p, Initial residual = 0.00029101, Final residual = 8.58952e-07, No Iterations 53
time step continuity errors : sum local = 6.09385e-12, global = 1.54254e-13, cumulative = -4.20367e-07
ExecutionTime = 0.28 s  ClockTime = 1 s

Time = 0.0061

Courant Number mean: 0.0107294 max: 0.0344911
smoothSolver:  Solving for Ux, Initial residual = 0.00113346, Final residual = 3.77343e-08, No Iterations 1
smoothSolver:  Solving for Uy, Initial residual = 0.000779302, Final residual = 3.53406e-08, No Iterations 1
DICPCG:  Solving for p, Initial residual = 0.00591398, Final residual = 0.000285023, No Iterations 2
time step continuity errors : sum local = 2.01872e-09, global = 1.27194e-12, cumulative = -4.20366e-07
DICPCG:  Solving for p, Initial residual = 0.000284175, Final residual = 8.32578e-07, No Iterations 53
time step continuity errors : sum local = 5.88893e-12, global = 1.48044e-13, cumulative = -4.20365e-07
ExecutionTime = 0.29 s  ClockTime = 1 s

Time = 0.0062

Courant Number mean: 0.0107295 max: 0.03445
smoothSolver:  Solving for Ux, Initial residual = 0.0011273, Final residual = 3.75077e-08, No Iterations 1
smoothSolver:  Solving for Uy, Initial residual = 0.000777576, Final residual = 3.49288e-08, No Iterations 1
DICPCG:  Solving for p, Initial residual = 0.00579088, Final residual = 0.000279391, No Iterations 2
time step continuity errors : sum local = 1.97281e-09, global = 1.26858e-12, cumulative = -4.20364e-07
DICPCG:  Solving for p, Initial residual = 0.000278551, Final residual = 7.89885e-07, No Iterations 53
time step continuity errors : sum local = 5.56975e-12, global = 1.38909e-13, cumulative = -4.20364e-07
ExecutionTime = 0.3 s  ClockTime = 1 s

Time = 0.0063

Courant Number mean: 0.0107295 max: 0.0344088
smoothSolver:  Solving for Ux, Initial residual = 0.00112132, Final residual = 3.72862e-08, No Iterations 1
smoothSolver:  Solving for Uy, Initial residual = 0.000775946, Final residual = 3.45254e-08, No Iterations 1
DICPCG:  Solving for p, Initial residual = 0.00566691, Final residual = 0.000273698, No Iterations 2
time step continuity errors : sum local = 1.9266e-09, global = 1.26006e-12, cumulative = -4.20363e-07
DICPCG:  Solving for p, Initial residual = 0.000272559, Final residual = 7.58088e-07, No Iterations 53
time step continuity errors : sum local = 5.32868e-12, global = 1.31318e-13, cumulative = -4.20363e-07
ExecutionTime = 0.3 s  ClockTime = 1 s

Time = 0.0064

Courant Number mean: 0.0107296 max: 0.0343673
smoothSolver:  Solving for Ux, Initial residual = 0.00111548, Final residual = 3.70714e-08, No Iterations 1
smoothSolver:  Solving for Uy, Initial residual = 0.000774242, Final residual = 3.41467e-08, No Iterations 1
DICPCG:  Solving for p, Initial residual = 0.00554208, Final residual = 0.000269187, No Iterations 2
time step continuity errors : sum local = 1.88881e-09, global = 1.25559e-12, cumulative = -4.20361e-07
DICPCG:  Solving for p, Initial residual = 0.000267859, Final residual = 9.76426e-07, No Iterations 52
time step continuity errors : sum local = 6.84122e-12, global = 1.34842e-13, cumulative = -4.20361e-07
ExecutionTime = 0.31 s  ClockTime = 1 s

Time = 0.0065

Courant Number mean: 0.0107296 max: 0.0343257
smoothSolver:  Solving for Ux, Initial residual = 0.00110984, Final residual = 3.68674e-08, No Iterations 1
smoothSolver:  Solving for Uy, Initial residual = 0.000772522, Final residual = 3.377e-08, No Iterations 1
DICPCG:  Solving for p, Initial residual = 0.00541752, Final residual = 0.000264864, No Iterations 2
time step continuity errors : sum local = 1.8524e-09, global = 1.34536e-12, cumulative = -4.2036e-07
DICPCG:  Solving for p, Initial residual = 0.000263679, Final residual = 7.78579e-07, No Iterations 52
time step continuity errors : sum local = 5.43695e-12, global = 1.24004e-13, cumulative = -4.2036e-07
ExecutionTime = 0.31 s  ClockTime = 1 s

Time = 0.0066

Courant Number mean: 0.0107297 max: 0.0342839
smoothSolver:  Solving for Ux, Initial residual = 0.00110455, Final residual = 3.66749e-08, No Iterations 1
smoothSolver:  Solving for Uy, Initial residual = 0.000770861, Final residual = 3.34026e-08, No Iterations 1
DICPCG:  Solving for p, Initial residual = 0.00529478, Final residual = 0.000260788, No Iterations 2
time step continuity errors : sum local = 1.81805e-09, global = 1.28063e-12, cumulative = -4.20358e-07
DICPCG:  Solving for p, Initial residual = 0.000259959, Final residual = 9.63793e-07, No Iterations 40
time step continuity errors : sum local = 6.70944e-12, global = -1.4504e-13, cumulative = -4.20359e-07
ExecutionTime = 0.31 s  ClockTime = 1 s

Time = 0.0067

Courant Number mean: 0.0107298 max: 0.0342419
smoothSolver:  Solving for Ux, Initial residual = 0.0010996, Final residual = 3.67452e-08, No Iterations 1
smoothSolver:  Solving for Uy, Initial residual = 0.000769176, Final residual = 3.30446e-08, No Iterations 1
DICPCG:  Solving for p, Initial residual = 0.00519616, Final residual = 0.000257035, No Iterations 2
time step continuity errors : sum local = 1.78652e-09, global = 7.79577e-13, cumulative = -4.20358e-07
DICPCG:  Solving for p, Initial residual = 0.000256448, Final residual = 9.04853e-07, No Iterations 40
time step continuity errors : sum local = 6.28096e-12, global = -4.70474e-13, cumulative = -4.20358e-07
ExecutionTime = 0.32 s  ClockTime = 1 s

Time = 0.0068

Courant Number mean: 0.0107298 max: 0.0341998
smoothSolver:  Solving for Ux, Initial residual = 0.00109623, Final residual = 3.68901e-08, No Iterations 1
smoothSolver:  Solving for Uy, Initial residual = 0.000767445, Final residual = 3.26872e-08, No Iterations 1
DICPCG:  Solving for p, Initial residual = 0.00510461, Final residual = 0.000253381, No Iterations 2
time step continuity errors : sum local = 1.75612e-09, global = 4.11774e-13, cumulative = -4.20358e-07
DICPCG:  Solving for p, Initial residual = 0.000252922, Final residual = 7.06019e-07, No Iterations 53
time step continuity errors : sum local = 4.88697e-12, global = 1.86933e-13, cumulative = -4.20358e-07
ExecutionTime = 0.32 s  ClockTime = 1 s

Time = 0.0069

Courant Number mean: 0.0107299 max: 0.0341574
smoothSolver:  Solving for Ux, Initial residual = 0.00109424, Final residual = 3.7031e-08, No Iterations 1
smoothSolver:  Solving for Uy, Initial residual = 0.000765648, Final residual = 3.23317e-08, No Iterations 1
DICPCG:  Solving for p, Initial residual = 0.00501884, Final residual = 0.000250031, No Iterations 2
time step continuity errors : sum local = 1.72817e-09, global = 1.91146e-12, cumulative = -4.20356e-07
DICPCG:  Solving for p, Initial residual = 0.000249708, Final residual = 7.21422e-07, No Iterations 53
time step continuity errors : sum local = 4.98029e-12, global = 1.92301e-13, cumulative = -4.20356e-07
ExecutionTime = 0.33 s  ClockTime = 1 s

Time = 0.007

Courant Number mean: 0.0107299 max: 0.0341149
smoothSolver:  Solving for Ux, Initial residual = 0.00109233, Final residual = 3.7168e-08, No Iterations 1
smoothSolver:  Solving for Uy, Initial residual = 0.000763825, Final residual = 3.19748e-08, No Iterations 1
DICPCG:  Solving for p, Initial residual = 0.00495338, Final residual = 0.000247394, No Iterations 2
time step continuity errors : sum local = 1.70543e-09, global = 1.3279e-12, cumulative = -4.20354e-07
DICPCG:  Solving for p, Initial residual = 0.000247093, Final residual = 7.24274e-07, No Iterations 53
time step continuity errors : sum local = 4.98681e-12, global = 1.87251e-13, cumulative = -4.20354e-07
ExecutionTime = 0.33 s  ClockTime = 1 s

Time = 0.0071

Courant Number mean: 0.01073 max: 0.0340721
smoothSolver:  Solving for Ux, Initial residual = 0.00109046, Final residual = 3.73004e-08, No Iterations 1
smoothSolver:  Solving for Uy, Initial residual = 0.000762382, Final residual = 3.1618e-08, No Iterations 1
DICPCG:  Solving for p, Initial residual = 0.00489448, Final residual = 0.000165501, No Iterations 3
time step continuity errors : sum local = 1.13795e-09, global = 1.29947e-12, cumulative = -4.20353e-07
DICPCG:  Solving for p, Initial residual = 0.000170576, Final residual = 9.49549e-07, No Iterations 37
time step continuity errors : sum local = 6.52077e-12, global = 1.07848e-12, cumulative = -4.20352e-07
ExecutionTime = 0.34 s  ClockTime = 1 s

Time = 0.0072

Courant Number mean: 0.01073 max: 0.0340291
smoothSolver:  Solving for Ux, Initial residual = 0.0010887, Final residual = 3.74298e-08, No Iterations 1
smoothSolver:  Solving for Uy, Initial residual = 0.000761607, Final residual = 3.12813e-08, No Iterations 1
DICPCG:  Solving for p, Initial residual = 0.00483654, Final residual = 0.000165538, No Iterations 3
time step continuity errors : sum local = 1.1354e-09, global = 3.26081e-12, cumulative = -4.20348e-07
DICPCG:  Solving for p, Initial residual = 0.000170671, Final residual = 7.50911e-07, No Iterations 52
time step continuity errors : sum local = 5.1441e-12, global = 1.6439e-13, cumulative = -4.20348e-07
ExecutionTime = 0.34 s  ClockTime = 1 s

Time = 0.0073

Courant Number mean: 0.0107301 max: 0.0339859
smoothSolver:  Solving for Ux, Initial residual = 0.00108723, Final residual = 3.75529e-08, No Iterations 1
smoothSolver:  Solving for Uy, Initial residual = 0.000761039, Final residual = 3.09521e-08, No Iterations 1
DICPCG:  Solving for p, Initial residual = 0.00477997, Final residual = 0.00016537, No Iterations 3
time step continuity errors : sum local = 1.13143e-09, global = 2.83909e-13, cumulative = -4.20348e-07
DICPCG:  Solving for p, Initial residual = 0.000170496, Final residual = 9.22782e-07, No Iterations 35
time step continuity errors : sum local = 6.30589e-12, global = -3.89163e-13, cumulative = -4.20348e-07
ExecutionTime = 0.34 s  ClockTime = 1 s

Time = 0.0074

Courant Number mean: 0.0107301 max: 0.0339425
smoothSolver:  Solving for Ux, Initial residual = 0.00108589, Final residual = 3.76742e-08, No Iterations 1
smoothSolver:  Solving for Uy, Initial residual = 0.000760436, Final residual = 3.06674e-08, No Iterations 1
DICPCG:  Solving for p, Initial residual = 0.00472486, Final residual = 0.000165419, No Iterations 3
time step continuity errors : sum local = 1.12908e-09, global = 2.50464e-13, cumulative = -4.20348e-07
DICPCG:  Solving for p, Initial residual = 0.000170388, Final residual = 8.87352e-07, No Iterations 35
time step continuity errors : sum local = 6.04951e-12, global = -3.37694e-13, cumulative = -4.20348e-07
ExecutionTime = 0.35 s  ClockTime = 1 s

Time = 0.0075

Courant Number mean: 0.0107302 max: 0.0338988
smoothSolver:  Solving for Ux, Initial residual = 0.00108455, Final residual = 3.7807e-08, No Iterations 1
smoothSolver:  Solving for Uy, Initial residual = 0.00075979, Final residual = 3.041e-08, No Iterations 1
DICPCG:  Solving for p, Initial residual = 0.00467112, Final residual = 0.000165535, No Iterations 3
time step continuity errors : sum local = 1.12723e-09, global = 8.62878e-13, cumulative = -4.20348e-07
DICPCG:  Solving for p, Initial residual = 0.000170192, Final residual = 8.59372e-07, No Iterations 35
time step continuity errors : sum local = 5.84514e-12, global = -2.28526e-13, cumulative = -4.20348e-07
ExecutionTime = 0.35 s  ClockTime = 1 s

Time = 0.0076

Courant Number mean: 0.0107302 max: 0.0338548
smoothSolver:  Solving for Ux, Initial residual = 0.00108323, Final residual = 3.80242e-08, No Iterations 1
smoothSolver:  Solving for Uy, Initial residual = 0.000759205, Final residual = 3.01511e-08, No Iterations 1
DICPCG:  Solving for p, Initial residual = 0.00461799, Final residual = 0.000165748, No Iterations 3
time step continuity errors : sum local = 1.12608e-09, global = 1.02819e-12, cumulative = -4.20347e-07
DICPCG:  Solving for p, Initial residual = 0.000169957, Final residual = 8.45902e-07, No Iterations 35
time step continuity errors : sum local = 5.74034e-12, global = -3.56455e-13, cumulative = -4.20347e-07
ExecutionTime = 0.35 s  ClockTime = 1 s

Time = 0.0077

Courant Number mean: 0.0107303 max: 0.0338106
smoothSolver:  Solving for Ux, Initial residual = 0.00108191, Final residual = 3.82363e-08, No Iterations 1
smoothSolver:  Solving for Uy, Initial residual = 0.000758555, Final residual = 2.9892e-08, No Iterations 1
DICPCG:  Solving for p, Initial residual = 0.00457212, Final residual = 0.000165657, No Iterations 3
time step continuity errors : sum local = 1.12289e-09, global = 6.62971e-13, cumulative = -4.20346e-07
DICPCG:  Solving for p, Initial residual = 0.000169594, Final residual = 9.37507e-07, No Iterations 35
time step continuity errors : sum local = 6.34759e-12, global = -8.6808e-13, cumulative = -4.20347e-07
ExecutionTime = 0.36 s  ClockTime = 1 s

Time = 0.0078

Courant Number mean: 0.0107303 max: 0.0337662
smoothSolver:  Solving for Ux, Initial residual = 0.00108061, Final residual = 3.84413e-08, No Iterations 1
smoothSolver:  Solving for Uy, Initial residual = 0.000757835, Final residual = 2.96378e-08, No Iterations 1
DICPCG:  Solving for p, Initial residual = 0.00454039, Final residual = 0.000165438, No Iterations 3
time step continuity errors : sum local = 1.1189e-09, global = -2.21746e-13, cumulative = -4.20348e-07
DICPCG:  Solving for p, Initial residual = 0.000169141, Final residual = 6.83143e-07, No Iterations 52
time step continuity errors : sum local = 4.6151e-12, global = 7.35657e-14, cumulative = -4.20348e-07
ExecutionTime = 0.36 s  ClockTime = 1 s

Time = 0.0079

Courant Number mean: 0.0107304 max: 0.0337214
smoothSolver:  Solving for Ux, Initial residual = 0.00107935, Final residual = 3.86407e-08, No Iterations 1
smoothSolver:  Solving for Uy, Initial residual = 0.000757033, Final residual = 2.93819e-08, No Iterations 1
DICPCG:  Solving for p, Initial residual = 0.00451546, Final residual = 0.000165067, No Iterations 3
time step continuity errors : sum local = 1.11398e-09, global = 2.12634e-12, cumulative = -4.20345e-07
DICPCG:  Solving for p, Initial residual = 0.000168535, Final residual = 9.89382e-07, No Iterations 33
time step continuity errors : sum local = 6.66971e-12, global = 4.61528e-13, cumulative = -4.20345e-07
ExecutionTime = 0.36 s  ClockTime = 1 s

Time = 0.008

Courant Number mean: 0.0107304 max: 0.0336764
smoothSolver:  Solving for Ux, Initial residual = 0.00107808, Final residual = 3.88322e-08, No Iterations 1
smoothSolver:  Solving for Uy, Initial residual = 0.000756246, Final residual = 2.91249e-08, No Iterations 1
DICPCG:  Solving for p, Initial residual = 0.00449254, Final residual = 0.000164416, No Iterations 3
time step continuity errors : sum local = 1.1072e-09, global = 1.85692e-12, cumulative = -4.20343e-07
DICPCG:  Solving for p, Initial residual = 0.000167617, Final residual = 8.55905e-07, No Iterations 33
time step continuity errors : sum local = 5.75764e-12, global = -2.05411e-13, cumulative = -4.20343e-07
ExecutionTime = 0.37 s  ClockTime = 1 s

Time = 0.0081

Courant Number mean: 0.0107305 max: 0.0336311
smoothSolver:  Solving for Ux, Initial residual = 0.00107681, Final residual = 3.90164e-08, No Iterations 1
smoothSolver:  Solving for Uy, Initial residual = 0.000755544, Final residual = 2.8866e-08, No Iterations 1
DICPCG:  Solving for p, Initial residual = 0.00447679, Final residual = 0.000163807, No Iterations 3
time step continuity errors : sum local = 1.10081e-09, global = 2.20182e-13, cumulative = -4.20343e-07
DICPCG:  Solving for p, Initial residual = 0.000166734, Final residual = 6.4369e-07, No Iterations 52
time step continuity errors : sum local = 4.32125e-12, global = 4.70495e-14, cumulative = -4.20343e-07
ExecutionTime = 0.37 s  ClockTime = 1 s

Time = 0.0082

Courant Number mean: 0.0107305 max: 0.0335855
smoothSolver:  Solving for Ux, Initial residual = 0.00107561, Final residual = 3.91951e-08, No Iterations 1
smoothSolver:  Solving for Uy, Initial residual = 0.000754783, Final residual = 2.86074e-08, No Iterations 1
DICPCG:  Solving for p, Initial residual = 0.00447068, Final residual = 0.000163238, No Iterations 3
time step continuity errors : sum local = 1.09482e-09, global = 1.4931e-12, cumulative = -4.20342e-07
DICPCG:  Solving for p, Initial residual = 0.000165757, Final residual = 8.6322e-07, No Iterations 35
time step continuity errors : sum local = 5.78379e-12, global = 9.68418e-14, cumulative = -4.20341e-07
ExecutionTime = 0.37 s  ClockTime = 1 s

Time = 0.0083

Courant Number mean: 0.0107306 max: 0.0335395
smoothSolver:  Solving for Ux, Initial residual = 0.00107447, Final residual = 3.93713e-08, No Iterations 1
smoothSolver:  Solving for Uy, Initial residual = 0.000754196, Final residual = 2.83538e-08, No Iterations 1
DICPCG:  Solving for p, Initial residual = 0.00447777, Final residual = 0.000162597, No Iterations 3
time step continuity errors : sum local = 1.08841e-09, global = 1.28381e-12, cumulative = -4.2034e-07
DICPCG:  Solving for p, Initial residual = 0.000164686, Final residual = 9.65935e-07, No Iterations 33
time step continuity errors : sum local = 6.45972e-12, global = 4.01943e-14, cumulative = -4.2034e-07
ExecutionTime = 0.38 s  ClockTime = 1 s

Time = 0.0084

Courant Number mean: 0.0107306 max: 0.0334933
smoothSolver:  Solving for Ux, Initial residual = 0.00107425, Final residual = 3.954e-08, No Iterations 1
smoothSolver:  Solving for Uy, Initial residual = 0.000753996, Final residual = 2.81026e-08, No Iterations 1
DICPCG:  Solving for p, Initial residual = 0.00448384, Final residual = 0.000162027, No Iterations 3
time step continuity errors : sum local = 1.0826e-09, global = 1.00161e-12, cumulative = -4.20339e-07
DICPCG:  Solving for p, Initial residual = 0.000163815, Final residual = 8.83439e-07, No Iterations 35
time step continuity errors : sum local = 5.89744e-12, global = -2.4008e-13, cumulative = -4.20339e-07
ExecutionTime = 0.38 s  ClockTime = 1 s

Time = 0.0085

Courant Number mean: 0.0107307 max: 0.0334468
smoothSolver:  Solving for Ux, Initial residual = 0.0010742, Final residual = 3.97012e-08, No Iterations 1
smoothSolver:  Solving for Uy, Initial residual = 0.00075377, Final residual = 2.78604e-08, No Iterations 1
DICPCG:  Solving for p, Initial residual = 0.00451831, Final residual = 0.000225726, No Iterations 2
time step continuity errors : sum local = 1.50563e-09, global = 6.54239e-13, cumulative = -4.20339e-07
DICPCG:  Solving for p, Initial residual = 0.000227056, Final residual = 8.25373e-07, No Iterations 37
time step continuity errors : sum local = 5.5012e-12, global = 3.5675e-13, cumulative = -4.20338e-07
ExecutionTime = 0.38 s  ClockTime = 1 s

Time = 0.0086

Courant Number mean: 0.0107307 max: 0.0334001
smoothSolver:  Solving for Ux, Initial residual = 0.00107421, Final residual = 3.9855e-08, No Iterations 1
smoothSolver:  Solving for Uy, Initial residual = 0.00075345, Final residual = 2.76649e-08, No Iterations 1
DICPCG:  Solving for p, Initial residual = 0.00459053, Final residual = 0.000226903, No Iterations 2
time step continuity errors : sum local = 1.51116e-09, global = 2.13447e-12, cumulative = -4.20336e-07
DICPCG:  Solving for p, Initial residual = 0.000228894, Final residual = 5.78588e-07, No Iterations 53
time step continuity errors : sum local = 3.85089e-12, global = 3.78795e-15, cumulative = -4.20336e-07
ExecutionTime = 0.39 s  ClockTime = 1 s

Time = 0.0087

Courant Number mean: 0.0107308 max: 0.033353
smoothSolver:  Solving for Ux, Initial residual = 0.00107425, Final residual = 3.99995e-08, No Iterations 1
smoothSolver:  Solving for Uy, Initial residual = 0.000752974, Final residual = 2.74842e-08, No Iterations 1
DICPCG:  Solving for p, Initial residual = 0.00475029, Final residual = 0.000229985, No Iterations 2
time step continuity errors : sum local = 1.52978e-09, global = 7.77084e-13, cumulative = -4.20335e-07
DICPCG:  Solving for p, Initial residual = 0.000231604, Final residual = 6.5958e-07, No Iterations 53
time step continuity errors : sum local = 4.38541e-12, global = -4.37517e-14, cumulative = -4.20335e-07
ExecutionTime = 0.39 s  ClockTime = 1 s

Time = 0.0088

Courant Number mean: 0.0107308 max: 0.0333057
smoothSolver:  Solving for Ux, Initial residual = 0.00107451, Final residual = 4.01359e-08, No Iterations 1
smoothSolver:  Solving for Uy, Initial residual = 0.000753193, Final residual = 2.72991e-08, No Iterations 1
DICPCG:  Solving for p, Initial residual = 0.00431343, Final residual = 0.000150781, No Iterations 3
time step continuity errors : sum local = 1.00105e-09, global = 1.06729e-12, cumulative = -4.20334e-07
DICPCG:  Solving for p, Initial residual = 0.000154532, Final residual = 7.23046e-07, No Iterations 52
time step continuity errors : sum local = 4.79404e-12, global = 1.63856e-13, cumulative = -4.20334e-07
ExecutionTime = 0.4 s  ClockTime = 1 s

Time = 0.0089

Courant Number mean: 0.0107309 max: 0.0332579
smoothSolver:  Solving for Ux, Initial residual = 0.00107367, Final residual = 4.02734e-08, No Iterations 1
smoothSolver:  Solving for Uy, Initial residual = 0.00075344, Final residual = 2.71414e-08, No Iterations 1
DICPCG:  Solving for p, Initial residual = 0.005347, Final residual = 0.000178471, No Iterations 3
time step continuity errors : sum local = 1.18058e-09, global = 1.45962e-12, cumulative = -4.20333e-07
DICPCG:  Solving for p, Initial residual = 0.000180833, Final residual = 8.09084e-07, No Iterations 54
time step continuity errors : sum local = 5.33886e-12, global = 3.60095e-14, cumulative = -4.20333e-07
ExecutionTime = 0.4 s  ClockTime = 1 s

Time = 0.009

Courant Number mean: 0.010731 max: 0.0332093
smoothSolver:  Solving for Ux, Initial residual = 0.00107154, Final residual = 4.04133e-08, No Iterations 1
smoothSolver:  Solving for Uy, Initial residual = 0.000753978, Final residual = 2.70109e-08, No Iterations 1
DICPCG:  Solving for p, Initial residual = 0.00425958, Final residual = 0.000153555, No Iterations 3
time step continuity errors : sum local = 1.01209e-09, global = 1.11341e-12, cumulative = -4.20332e-07
DICPCG:  Solving for p, Initial residual = 0.000156606, Final residual = 6.47509e-07, No Iterations 52
time step continuity errors : sum local = 4.26101e-12, global = 1.35012e-13, cumulative = -4.20331e-07
ExecutionTime = 0.4 s  ClockTime = 1 s

Time = 0.0091

Courant Number mean: 0.0107311 max: 0.0331602
smoothSolver:  Solving for Ux, Initial residual = 0.00107081, Final residual = 4.05356e-08, No Iterations 1
smoothSolver:  Solving for Uy, Initial residual = 0.000754734, Final residual = 2.68371e-08, No Iterations 1
DICPCG:  Solving for p, Initial residual = 0.00677809, Final residual = 0.000251981, No Iterations 3
time step continuity errors : sum local = 1.65152e-09, global = 1.31497e-12, cumulative = -4.2033e-07
DICPCG:  Solving for p, Initial residual = 0.000254826, Final residual = 7.65174e-07, No Iterations 55
time step continuity errors : sum local = 4.99432e-12, global = 1.89633e-14, cumulative = -4.2033e-07
ExecutionTime = 0.41 s  ClockTime = 1 s

Time = 0.0092

Courant Number mean: 0.0107312 max: 0.0331099
smoothSolver:  Solving for Ux, Initial residual = 0.00106833, Final residual = 4.06747e-08, No Iterations 1
smoothSolver:  Solving for Uy, Initial residual = 0.000759221, Final residual = 2.67432e-08, No Iterations 1
DICPCG:  Solving for p, Initial residual = 0.00419557, Final residual = 0.000173321, No Iterations 3
time step continuity errors : sum local = 1.13048e-09, global = 1.09466e-12, cumulative = -4.20329e-07
DICPCG:  Solving for p, Initial residual = 0.000175291, Final residual = 7.7441e-07, No Iterations 37
time step continuity errors : sum local = 5.04341e-12, global = 7.12797e-13, cumulative = -4.20328e-07
ExecutionTime = 0.41 s  ClockTime = 1 s

Time = 0.0093

Courant Number mean: 0.0107313 max: 0.0330593
smoothSolver:  Solving for Ux, Initial residual = 0.00106822, Final residual = 4.078e-08, No Iterations 1
smoothSolver:  Solving for Uy, Initial residual = 0.000758443, Final residual = 2.65408e-08, No Iterations 1
DICPCG:  Solving for p, Initial residual = 0.00414959, Final residual = 0.000174415, No Iterations 3
time step continuity errors : sum local = 1.13424e-09, global = 2.60846e-12, cumulative = -4.20326e-07
DICPCG:  Solving for p, Initial residual = 0.000176167, Final residual = 6.39401e-07, No Iterations 52
time step continuity errors : sum local = 4.15206e-12, global = -5.44756e-14, cumulative = -4.20326e-07
ExecutionTime = 0.41 s  ClockTime = 1 s

Time = 0.0094

Courant Number mean: 0.0107314 max: 0.0330082
smoothSolver:  Solving for Ux, Initial residual = 0.00106816, Final residual = 4.08788e-08, No Iterations 1
smoothSolver:  Solving for Uy, Initial residual = 0.000757891, Final residual = 2.63366e-08, No Iterations 1
DICPCG:  Solving for p, Initial residual = 0.00406524, Final residual = 0.000173116, No Iterations 3
time step continuity errors : sum local = 1.12249e-09, global = 2.97265e-13, cumulative = -4.20325e-07
DICPCG:  Solving for p, Initial residual = 0.00017492, Final residual = 9.07921e-07, No Iterations 36
time step continuity errors : sum local = 5.87854e-12, global = -5.92848e-13, cumulative = -4.20326e-07
ExecutionTime = 0.42 s  ClockTime = 1 s

Time = 0.0095

Courant Number mean: 0.0107315 max: 0.0329566
smoothSolver:  Solving for Ux, Initial residual = 0.00106816, Final residual = 4.09735e-08, No Iterations 1
smoothSolver:  Solving for Uy, Initial residual = 0.000757623, Final residual = 2.61343e-08, No Iterations 1
DICPCG:  Solving for p, Initial residual = 0.00403206, Final residual = 0.000170588, No Iterations 3
time step continuity errors : sum local = 1.10295e-09, global = 5.19575e-14, cumulative = -4.20326e-07
DICPCG:  Solving for p, Initial residual = 0.000172476, Final residual = 9.58492e-07, No Iterations 37
time step continuity errors : sum local = 6.18833e-12, global = -1.43e-12, cumulative = -4.20327e-07
ExecutionTime = 0.42 s  ClockTime = 1 s

Time = 0.0096

Courant Number mean: 0.0107316 max: 0.0329046
smoothSolver:  Solving for Ux, Initial residual = 0.00106812, Final residual = 4.10619e-08, No Iterations 1
smoothSolver:  Solving for Uy, Initial residual = 0.000757305, Final residual = 2.59322e-08, No Iterations 1
DICPCG:  Solving for p, Initial residual = 0.0040433, Final residual = 0.00016827, No Iterations 3
time step continuity errors : sum local = 1.08489e-09, global = -1.04743e-12, cumulative = -4.20328e-07
DICPCG:  Solving for p, Initial residual = 0.000170181, Final residual = 6.02686e-07, No Iterations 52
time step continuity errors : sum local = 3.88023e-12, global = -6.81047e-14, cumulative = -4.20329e-07
ExecutionTime = 0.42 s  ClockTime = 1 s

Time = 0.0097

Courant Number mean: 0.0107317 max: 0.0328521
smoothSolver:  Solving for Ux, Initial residual = 0.0010681, Final residual = 4.11446e-08, No Iterations 1
smoothSolver:  Solving for Uy, Initial residual = 0.000756919, Final residual = 2.57283e-08, No Iterations 1
DICPCG:  Solving for p, Initial residual = 0.00405659, Final residual = 0.000165802, No Iterations 3
time step continuity errors : sum local = 1.06617e-09, global = 2.395e-12, cumulative = -4.20326e-07
DICPCG:  Solving for p, Initial residual = 0.000167637, Final residual = 9.20163e-07, No Iterations 35
time step continuity errors : sum local = 5.90945e-12, global = 1.64558e-13, cumulative = -4.20326e-07
ExecutionTime = 0.43 s  ClockTime = 1 s

Time = 0.0098

Courant Number mean: 0.0107317 max: 0.0327992
smoothSolver:  Solving for Ux, Initial residual = 0.00106797, Final residual = 4.12178e-08, No Iterations 1
smoothSolver:  Solving for Uy, Initial residual = 0.000756502, Final residual = 2.55308e-08, No Iterations 1
DICPCG:  Solving for p, Initial residual = 0.00406943, Final residual = 0.000163528, No Iterations 3
time step continuity errors : sum local = 1.04889e-09, global = 1.47819e-12, cumulative = -4.20325e-07
DICPCG:  Solving for p, Initial residual = 0.000165298, Final residual = 9.5536e-07, No Iterations 36
time step continuity errors : sum local = 6.12014e-12, global = -1.18179e-12, cumulative = -4.20326e-07
ExecutionTime = 0.43 s  ClockTime = 1 s

Time = 0.0099

Courant Number mean: 0.0107318 max: 0.0327458
smoothSolver:  Solving for Ux, Initial residual = 0.0010678, Final residual = 4.12835e-08, No Iterations 1
smoothSolver:  Solving for Uy, Initial residual = 0.000756026, Final residual = 2.53382e-08, No Iterations 1
DICPCG:  Solving for p, Initial residual = 0.00408186, Final residual = 0.000161174, No Iterations 3
time step continuity errors : sum local = 1.03127e-09, global = -1.32072e-12, cumulative = -4.20327e-07
DICPCG:  Solving for p, Initial residual = 0.000162867, Final residual = 9.76141e-07, No Iterations 51
time step continuity errors : sum local = 6.23834e-12, global = -1.29306e-13, cumulative = -4.20327e-07
ExecutionTime = 0.43 s  ClockTime = 1 s

Time = 0.01

Courant Number mean: 0.0107319 max: 0.0326919
smoothSolver:  Solving for Ux, Initial residual = 0.00106768, Final residual = 4.13437e-08, No Iterations 1
smoothSolver:  Solving for Uy, Initial residual = 0.000755734, Final residual = 2.5198e-08, No Iterations 1
DICPCG:  Solving for p, Initial residual = 0.00409724, Final residual = 0.000158702, No Iterations 3
time step continuity errors : sum local = 1.01315e-09, global = 2.14741e-12, cumulative = -4.20325e-07
DICPCG:  Solving for p, Initial residual = 0.00016042, Final residual = 8.91664e-07, No Iterations 35
time step continuity errors : sum local = 5.68583e-12, global = -5.03264e-13, cumulative = -4.20326e-07
ExecutionTime = 0.45 s  ClockTime = 1 s

Time = 0.0101

Courant Number mean: 0.010732 max: 0.0326376
smoothSolver:  Solving for Ux, Initial residual = 0.00106741, Final residual = 4.13936e-08, No Iterations 1
smoothSolver:  Solving for Uy, Initial residual = 0.00075562, Final residual = 2.50533e-08, No Iterations 1
DICPCG:  Solving for p, Initial residual = 0.00411795, Final residual = 0.00015692, No Iterations 3
time step continuity errors : sum local = 9.99513e-10, global = 1.76118e-13, cumulative = -4.20325e-07
DICPCG:  Solving for p, Initial residual = 0.000158724, Final residual = 9.72041e-07, No Iterations 51
time step continuity errors : sum local = 6.18453e-12, global = -1.40078e-13, cumulative = -4.20325e-07
ExecutionTime = 0.46 s  ClockTime = 1 s

Time = 0.0102

Courant Number mean: 0.0107321 max: 0.0325828
smoothSolver:  Solving for Ux, Initial residual = 0.00106718, Final residual = 4.14378e-08, No Iterations 1
smoothSolver:  Solving for Uy, Initial residual = 0.000755434, Final residual = 2.49225e-08, No Iterations 1
DICPCG:  Solving for p, Initial residual = 0.00414154, Final residual = 0.000155248, No Iterations 3
time step continuity errors : sum local = 9.86758e-10, global = 1.48964e-12, cumulative = -4.20324e-07
DICPCG:  Solving for p, Initial residual = 0.000157016, Final residual = 9.59673e-07, No Iterations 51
time step continuity errors : sum local = 6.09305e-12, global = -1.48303e-13, cumulative = -4.20324e-07
ExecutionTime = 0.47 s  ClockTime = 1 s

Time = 0.0103

Courant Number mean: 0.0107322 max: 0.0325276
smoothSolver:  Solving for Ux, Initial residual = 0.00106691, Final residual = 4.14739e-08, No Iterations 1
smoothSolver:  Solving for Uy, Initial residual = 0.00075537, Final residual = 2.48138e-08, No Iterations 1
DICPCG:  Solving for p, Initial residual = 0.0041658, Final residual = 0.000153905, No Iterations 3
time step continuity errors : sum local = 9.76271e-10, global = 1.03554e-12, cumulative = -4.20323e-07
DICPCG:  Solving for p, Initial residual = 0.000155675, Final residual = 9.74456e-07, No Iterations 51
time step continuity errors : sum local = 6.17535e-12, global = -1.43953e-13, cumulative = -4.20323e-07
ExecutionTime = 0.47 s  ClockTime = 1 s

Time = 0.0104

Courant Number mean: 0.0107323 max: 0.0324719
smoothSolver:  Solving for Ux, Initial residual = 0.00106673, Final residual = 4.15028e-08, No Iterations 1
smoothSolver:  Solving for Uy, Initial residual = 0.000755387, Final residual = 2.47041e-08, No Iterations 1
DICPCG:  Solving for p, Initial residual = 0.0041913, Final residual = 0.000152674, No Iterations 3
time step continuity errors : sum local = 9.66697e-10, global = 1.05552e-12, cumulative = -4.20322e-07
DICPCG:  Solving for p, Initial residual = 0.000154526, Final residual = 9.78183e-07, No Iterations 51
time step continuity errors : sum local = 6.18789e-12, global = -1.43692e-13, cumulative = -4.20322e-07
ExecutionTime = 0.47 s  ClockTime = 1 s

Time = 0.0105

Courant Number mean: 0.0107324 max: 0.0324158
smoothSolver:  Solving for Ux, Initial residual = 0.00106654, Final residual = 4.15239e-08, No Iterations 1
smoothSolver:  Solving for Uy, Initial residual = 0.000755547, Final residual = 2.45898e-08, No Iterations 1
DICPCG:  Solving for p, Initial residual = 0.004219, Final residual = 0.000151776, No Iterations 3
time step continuity errors : sum local = 9.59333e-10, global = 1.04995e-12, cumulative = -4.20321e-07
DICPCG:  Solving for p, Initial residual = 0.000153508, Final residual = 9.80992e-07, No Iterations 51
time step continuity errors : sum local = 6.19501e-12, global = -1.43634e-13, cumulative = -4.20321e-07
ExecutionTime = 0.48 s  ClockTime = 1 s

Time = 0.0106

Courant Number mean: 0.0107325 max: 0.0323592
smoothSolver:  Solving for Ux, Initial residual = 0.00106631, Final residual = 4.15417e-08, No Iterations 1
smoothSolver:  Solving for Uy, Initial residual = 0.00075595, Final residual = 2.44823e-08, No Iterations 1
DICPCG:  Solving for p, Initial residual = 0.00424982, Final residual = 0.000151195, No Iterations 3
time step continuity errors : sum local = 9.54072e-10, global = 1.04853e-12, cumulative = -4.2032e-07
DICPCG:  Solving for p, Initial residual = 0.000152842, Final residual = 9.81016e-07, No Iterations 51
time step continuity errors : sum local = 6.18524e-12, global = -1.4413e-13, cumulative = -4.20321e-07
ExecutionTime = 0.49 s  ClockTime = 1 s

Time = 0.0107

[...]
time step continuity errors : sum local = 2.19735e-12, global = 1.03416e-13, cumulative = -4.12885e-07
ExecutionTime = 22.83 s  ClockTime = 47 s

Time = 0.4974

Courant Number mean: 0.0118171 max: 0.0234161
smoothSolver:  Solving for Ux, Initial residual = 8.64609e-05, Final residual = 2.22762e-09, No Iterations 1
smoothSolver:  Solving for Uy, Initial residual = 0.000155578, Final residual = 4.59555e-09, No Iterations 1
DICPCG:  Solving for p, Initial residual = 0.000468943, Final residual = 2.17264e-05, No Iterations 8
time step continuity errors : sum local = 6.40064e-11, global = 3.82231e-12, cumulative = -4.12881e-07
DICPCG:  Solving for p, Initial residual = 2.1993e-05, Final residual = 9.9061e-07, No Iterations 28
time step continuity errors : sum local = 2.91875e-12, global = 3.52413e-13, cumulative = -4.12881e-07
ExecutionTime = 22.83 s  ClockTime = 47 s

Time = 0.4975

Courant Number mean: 0.0118172 max: 0.0234156
smoothSolver:  Solving for Ux, Initial residual = 8.64447e-05, Final residual = 2.22769e-09, No Iterations 1
smoothSolver:  Solving for Uy, Initial residual = 0.000155612, Final residual = 4.59787e-09, No Iterations 1
DICPCG:  Solving for p, Initial residual = 0.000591934, Final residual = 2.60093e-05, No Iterations 8
time step continuity errors : sum local = 7.66211e-11, global = 4.14963e-12, cumulative = -4.12877e-07
DICPCG:  Solving for p, Initial residual = 2.61695e-05, Final residual = 7.28495e-07, No Iterations 47
time step continuity errors : sum local = 2.14566e-12, global = 2.94194e-14, cumulative = -4.12877e-07
ExecutionTime = 22.84 s  ClockTime = 47 s

Time = 0.4976

Courant Number mean: 0.0118173 max: 0.0234151
smoothSolver:  Solving for Ux, Initial residual = 8.64438e-05, Final residual = 2.22776e-09, No Iterations 1
smoothSolver:  Solving for Uy, Initial residual = 0.00015553, Final residual = 4.60031e-09, No Iterations 1
DICPCG:  Solving for p, Initial residual = 0.000600646, Final residual = 2.55905e-05, No Iterations 8
time step continuity errors : sum local = 7.53728e-11, global = 3.18323e-12, cumulative = -4.12874e-07
DICPCG:  Solving for p, Initial residual = 2.57805e-05, Final residual = 7.30308e-07, No Iterations 47
time step continuity errors : sum local = 2.15077e-12, global = 3.09938e-14, cumulative = -4.12874e-07
ExecutionTime = 22.84 s  ClockTime = 47 s

Time = 0.4977

Courant Number mean: 0.0118174 max: 0.0234146
smoothSolver:  Solving for Ux, Initial residual = 8.64443e-05, Final residual = 2.22796e-09, No Iterations 1
smoothSolver:  Solving for Uy, Initial residual = 0.000155447, Final residual = 4.60234e-09, No Iterations 1
DICPCG:  Solving for p, Initial residual = 0.000447009, Final residual = 1.78971e-05, No Iterations 9
time step continuity errors : sum local = 5.27126e-11, global = 4.90708e-12, cumulative = -4.12869e-07
DICPCG:  Solving for p, Initial residual = 1.80999e-05, Final residual = 9.98394e-07, No Iterations 29
time step continuity errors : sum local = 2.94067e-12, global = 7.15762e-13, cumulative = -4.12868e-07
ExecutionTime = 22.85 s  ClockTime = 47 s

Time = 0.4978

Courant Number mean: 0.0118175 max: 0.0234141
smoothSolver:  Solving for Ux, Initial residual = 8.6438e-05, Final residual = 2.22823e-09, No Iterations 1
smoothSolver:  Solving for Uy, Initial residual = 0.000155411, Final residual = 4.60436e-09, No Iterations 1
DICPCG:  Solving for p, Initial residual = 0.000368886, Final residual = 1.80337e-05, No Iterations 9
time step continuity errors : sum local = 5.31192e-11, global = 6.60313e-12, cumulative = -4.12861e-07
DICPCG:  Solving for p, Initial residual = 1.8249e-05, Final residual = 8.29428e-07, No Iterations 43
time step continuity errors : sum local = 2.44319e-12, global = 6.44103e-14, cumulative = -4.12861e-07
ExecutionTime = 22.85 s  ClockTime = 47 s

Time = 0.4979

Courant Number mean: 0.0118177 max: 0.0234137
smoothSolver:  Solving for Ux, Initial residual = 8.64199e-05, Final residual = 2.22816e-09, No Iterations 1
smoothSolver:  Solving for Uy, Initial residual = 0.000155406, Final residual = 4.60592e-09, No Iterations 1
DICPCG:  Solving for p, Initial residual = 0.000359237, Final residual = 1.75951e-05, No Iterations 9
time step continuity errors : sum local = 5.18351e-11, global = 4.6748e-12, cumulative = -4.12857e-07
DICPCG:  Solving for p, Initial residual = 1.78117e-05, Final residual = 7.62352e-07, No Iterations 28
time step continuity errors : sum local = 2.24594e-12, global = -3.70301e-14, cumulative = -4.12857e-07
ExecutionTime = 22.86 s  ClockTime = 47 s

Time = 0.498

Courant Number mean: 0.0118178 max: 0.0234132
smoothSolver:  Solving for Ux, Initial residual = 8.64071e-05, Final residual = 2.22828e-09, No Iterations 1
smoothSolver:  Solving for Uy, Initial residual = 0.000155397, Final residual = 4.60707e-09, No Iterations 1
DICPCG:  Solving for p, Initial residual = 0.000356433, Final residual = 1.74613e-05, No Iterations 9
time step continuity errors : sum local = 5.14441e-11, global = 5.15604e-12, cumulative = -4.12852e-07
DICPCG:  Solving for p, Initial residual = 1.76786e-05, Final residual = 8.14317e-07, No Iterations 28
time step continuity errors : sum local = 2.39918e-12, global = 3.41866e-13, cumulative = -4.12851e-07
ExecutionTime = 22.86 s  ClockTime = 47 s

Time = 0.4981

Courant Number mean: 0.0118179 max: 0.0234128
smoothSolver:  Solving for Ux, Initial residual = 8.63937e-05, Final residual = 2.22865e-09, No Iterations 1
smoothSolver:  Solving for Uy, Initial residual = 0.000155391, Final residual = 4.60786e-09, No Iterations 1
DICPCG:  Solving for p, Initial residual = 0.000355016, Final residual = 1.76073e-05, No Iterations 9
time step continuity errors : sum local = 5.18777e-11, global = 6.03855e-12, cumulative = -4.12845e-07
DICPCG:  Solving for p, Initial residual = 1.78304e-05, Final residual = 7.46775e-07, No Iterations 43
time step continuity errors : sum local = 2.20033e-12, global = 6.62369e-14, cumulative = -4.12845e-07
ExecutionTime = 22.87 s  ClockTime = 47 s

Time = 0.4982

Courant Number mean: 0.011818 max: 0.0234123
smoothSolver:  Solving for Ux, Initial residual = 8.63787e-05, Final residual = 2.22895e-09, No Iterations 1
smoothSolver:  Solving for Uy, Initial residual = 0.000155391, Final residual = 4.60824e-09, No Iterations 1
DICPCG:  Solving for p, Initial residual = 0.000354334, Final residual = 1.76293e-05, No Iterations 9
time step continuity errors : sum local = 5.19484e-11, global = 5.16165e-12, cumulative = -4.1284e-07
DICPCG:  Solving for p, Initial residual = 1.7854e-05, Final residual = 8.02608e-07, No Iterations 28
time step continuity errors : sum local = 2.3651e-12, global = 3.50212e-13, cumulative = -4.1284e-07
ExecutionTime = 22.87 s  ClockTime = 47 s

Time = 0.4983

Courant Number mean: 0.0118181 max: 0.0234119
smoothSolver:  Solving for Ux, Initial residual = 8.63653e-05, Final residual = 2.2295e-09, No Iterations 1
smoothSolver:  Solving for Uy, Initial residual = 0.000155389, Final residual = 4.60835e-09, No Iterations 1
DICPCG:  Solving for p, Initial residual = 0.000353428, Final residual = 1.44416e-05, No Iterations 10
time step continuity errors : sum local = 4.25577e-11, global = 7.07126e-12, cumulative = -4.12832e-07
DICPCG:  Solving for p, Initial residual = 1.43959e-05, Final residual = 6.65121e-07, No Iterations 42
time step continuity errors : sum local = 1.96009e-12, global = -3.61796e-14, cumulative = -4.12833e-07
ExecutionTime = 22.88 s  ClockTime = 47 s

Time = 0.4984

Courant Number mean: 0.0118182 max: 0.0234115
smoothSolver:  Solving for Ux, Initial residual = 8.6349e-05, Final residual = 2.23005e-09, No Iterations 1
smoothSolver:  Solving for Uy, Initial residual = 0.000155383, Final residual = 4.60841e-09, No Iterations 1
DICPCG:  Solving for p, Initial residual = 0.000353073, Final residual = 1.45014e-05, No Iterations 10
time step continuity errors : sum local = 4.27385e-11, global = 6.28059e-12, cumulative = -4.12826e-07
DICPCG:  Solving for p, Initial residual = 1.44511e-05, Final residual = 7.16151e-07, No Iterations 27
time step continuity errors : sum local = 2.11069e-12, global = 3.90312e-13, cumulative = -4.12826e-07
ExecutionTime = 22.89 s  ClockTime = 47 s

Time = 0.4985

Courant Number mean: 0.0118184 max: 0.0234111
smoothSolver:  Solving for Ux, Initial residual = 8.63342e-05, Final residual = 2.23059e-09, No Iterations 1
smoothSolver:  Solving for Uy, Initial residual = 0.00015537, Final residual = 4.60862e-09, No Iterations 1
DICPCG:  Solving for p, Initial residual = 0.000352674, Final residual = 1.46261e-05, No Iterations 10
time step continuity errors : sum local = 4.31089e-11, global = 7.07802e-12, cumulative = -4.12819e-07
DICPCG:  Solving for p, Initial residual = 1.45808e-05, Final residual = 6.71698e-07, No Iterations 42
time step continuity errors : sum local = 1.9798e-12, global = -3.73985e-14, cumulative = -4.12819e-07
ExecutionTime = 22.9 s  ClockTime = 47 s

Time = 0.4986

Courant Number mean: 0.0118185 max: 0.0234107
smoothSolver:  Solving for Ux, Initial residual = 8.63164e-05, Final residual = 2.23098e-09, No Iterations 1
smoothSolver:  Solving for Uy, Initial residual = 0.000155355, Final residual = 4.60936e-09, No Iterations 1
DICPCG:  Solving for p, Initial residual = 0.000352548, Final residual = 1.4592e-05, No Iterations 10
time step continuity errors : sum local = 4.30129e-11, global = 6.29218e-12, cumulative = -4.12813e-07
DICPCG:  Solving for p, Initial residual = 1.45576e-05, Final residual = 7.17734e-07, No Iterations 27
time step continuity errors : sum local = 2.11572e-12, global = 3.94115e-13, cumulative = -4.12812e-07
ExecutionTime = 22.9 s  ClockTime = 47 s

Time = 0.4987

Courant Number mean: 0.0118186 max: 0.0234104
smoothSolver:  Solving for Ux, Initial residual = 8.63021e-05, Final residual = 2.23136e-09, No Iterations 1
smoothSolver:  Solving for Uy, Initial residual = 0.000155336, Final residual = 4.60999e-09, No Iterations 1
DICPCG:  Solving for p, Initial residual = 0.000352564, Final residual = 1.46426e-05, No Iterations 10
time step continuity errors : sum local = 4.31648e-11, global = 7.08496e-12, cumulative = -4.12805e-07
DICPCG:  Solving for p, Initial residual = 1.46085e-05, Final residual = 6.72102e-07, No Iterations 42
time step continuity errors : sum local = 1.98134e-12, global = -3.65997e-14, cumulative = -4.12805e-07
ExecutionTime = 22.91 s  ClockTime = 47 s

Time = 0.4988

Courant Number mean: 0.0118187 max: 0.02341
smoothSolver:  Solving for Ux, Initial residual = 8.62847e-05, Final residual = 2.23153e-09, No Iterations 1
smoothSolver:  Solving for Uy, Initial residual = 0.000155312, Final residual = 4.61115e-09, No Iterations 1
DICPCG:  Solving for p, Initial residual = 0.000353031, Final residual = 1.45716e-05, No Iterations 10
time step continuity errors : sum local = 4.29601e-11, global = 6.2858e-12, cumulative = -4.12799e-07
DICPCG:  Solving for p, Initial residual = 1.45345e-05, Final residual = 7.20158e-07, No Iterations 27
time step continuity errors : sum local = 2.12323e-12, global = 3.90052e-13, cumulative = -4.12798e-07
ExecutionTime = 22.91 s  ClockTime = 47 s

Time = 0.4989

Courant Number mean: 0.0118188 max: 0.0234097
smoothSolver:  Solving for Ux, Initial residual = 8.62699e-05, Final residual = 2.23173e-09, No Iterations 1
smoothSolver:  Solving for Uy, Initial residual = 0.000155294, Final residual = 4.61226e-09, No Iterations 1
DICPCG:  Solving for p, Initial residual = 0.000353972, Final residual = 1.46051e-05, No Iterations 10
time step continuity errors : sum local = 4.30618e-11, global = 7.0717e-12, cumulative = -4.12791e-07
DICPCG:  Solving for p, Initial residual = 1.4559e-05, Final residual = 6.72384e-07, No Iterations 42
time step continuity errors : sum local = 1.98252e-12, global = -3.4721e-14, cumulative = -4.12791e-07
ExecutionTime = 22.92 s  ClockTime = 47 s

Time = 0.499

Courant Number mean: 0.0118189 max: 0.0234093
smoothSolver:  Solving for Ux, Initial residual = 8.6255e-05, Final residual = 2.23171e-09, No Iterations 1
smoothSolver:  Solving for Uy, Initial residual = 0.000155272, Final residual = 4.61347e-09, No Iterations 1
DICPCG:  Solving for p, Initial residual = 0.000355448, Final residual = 1.45534e-05, No Iterations 10
time step continuity errors : sum local = 4.29141e-11, global = 6.28852e-12, cumulative = -4.12785e-07
DICPCG:  Solving for p, Initial residual = 1.44961e-05, Final residual = 7.2411e-07, No Iterations 27
time step continuity errors : sum local = 2.13527e-12, global = 3.92614e-13, cumulative = -4.12785e-07
ExecutionTime = 22.93 s  ClockTime = 47 s

Time = 0.4991

Courant Number mean: 0.011819 max: 0.023409
smoothSolver:  Solving for Ux, Initial residual = 8.62413e-05, Final residual = 2.23162e-09, No Iterations 1
smoothSolver:  Solving for Uy, Initial residual = 0.000155246, Final residual = 4.61448e-09, No Iterations 1
DICPCG:  Solving for p, Initial residual = 0.000357776, Final residual = 1.46185e-05, No Iterations 10
time step continuity errors : sum local = 4.31092e-11, global = 7.07136e-12, cumulative = -4.12778e-07
DICPCG:  Solving for p, Initial residual = 1.45533e-05, Final residual = 6.81222e-07, No Iterations 42
time step continuity errors : sum local = 2.00895e-12, global = -3.13725e-14, cumulative = -4.12778e-07
ExecutionTime = 22.93 s  ClockTime = 47 s

Time = 0.4992

Courant Number mean: 0.0118192 max: 0.0234087
smoothSolver:  Solving for Ux, Initial residual = 8.62249e-05, Final residual = 2.23137e-09, No Iterations 1
smoothSolver:  Solving for Uy, Initial residual = 0.000155217, Final residual = 4.61532e-09, No Iterations 1
DICPCG:  Solving for p, Initial residual = 0.000361884, Final residual = 1.79755e-05, No Iterations 9
time step continuity errors : sum local = 5.3015e-11, global = 5.19434e-12, cumulative = -4.12772e-07
DICPCG:  Solving for p, Initial residual = 1.81894e-05, Final residual = 8.04187e-07, No Iterations 28
time step continuity errors : sum local = 2.37186e-12, global = 3.37973e-13, cumulative = -4.12772e-07
ExecutionTime = 22.94 s  ClockTime = 47 s

Time = 0.4993

Courant Number mean: 0.0118193 max: 0.0234084
smoothSolver:  Solving for Ux, Initial residual = 8.62101e-05, Final residual = 2.2312e-09, No Iterations 1
smoothSolver:  Solving for Uy, Initial residual = 0.000155183, Final residual = 4.6158e-09, No Iterations 1
DICPCG:  Solving for p, Initial residual = 0.000370818, Final residual = 1.8206e-05, No Iterations 9
time step continuity errors : sum local = 5.3699e-11, global = 5.96245e-12, cumulative = -4.12766e-07
DICPCG:  Solving for p, Initial residual = 1.84533e-05, Final residual = 8.48771e-07, No Iterations 43
time step continuity errors : sum local = 2.50356e-12, global = 8.94293e-14, cumulative = -4.12766e-07
ExecutionTime = 22.94 s  ClockTime = 47 s

Time = 0.4994

Courant Number mean: 0.0118194 max: 0.0234081
smoothSolver:  Solving for Ux, Initial residual = 8.61927e-05, Final residual = 2.23107e-09, No Iterations 1
smoothSolver:  Solving for Uy, Initial residual = 0.000155149, Final residual = 4.61603e-09, No Iterations 1
DICPCG:  Solving for p, Initial residual = 0.000399354, Final residual = 1.87617e-05, No Iterations 9
time step continuity errors : sum local = 5.53454e-11, global = 5.14349e-12, cumulative = -4.12761e-07
DICPCG:  Solving for p, Initial residual = 1.90766e-05, Final residual = 8.00643e-07, No Iterations 28
time step continuity errors : sum local = 2.36191e-12, global = 3.10271e-13, cumulative = -4.12761e-07
ExecutionTime = 22.94 s  ClockTime = 47 s

Time = 0.4995

Courant Number mean: 0.0118195 max: 0.0234079
smoothSolver:  Solving for Ux, Initial residual = 8.61764e-05, Final residual = 2.23076e-09, No Iterations 1
smoothSolver:  Solving for Uy, Initial residual = 0.000155123, Final residual = 4.61559e-09, No Iterations 1
DICPCG:  Solving for p, Initial residual = 0.000469602, Final residual = 2.01704e-05, No Iterations 9
time step continuity errors : sum local = 5.95063e-11, global = 5.71507e-12, cumulative = -4.12755e-07
DICPCG:  Solving for p, Initial residual = 2.05247e-05, Final residual = 9.99308e-07, No Iterations 28
time step continuity errors : sum local = 2.94825e-12, global = 6.84105e-13, cumulative = -4.12754e-07
ExecutionTime = 22.95 s  ClockTime = 47 s

Time = 0.4996

Courant Number mean: 0.0118196 max: 0.0234076
smoothSolver:  Solving for Ux, Initial residual = 8.61563e-05, Final residual = 2.22965e-09, No Iterations 1
smoothSolver:  Solving for Uy, Initial residual = 0.000155104, Final residual = 4.61436e-09, No Iterations 1
DICPCG:  Solving for p, Initial residual = 0.000573471, Final residual = 2.49755e-05, No Iterations 9
time step continuity errors : sum local = 7.36877e-11, global = 6.19179e-12, cumulative = -4.12748e-07
DICPCG:  Solving for p, Initial residual = 2.55725e-05, Final residual = 6.25693e-07, No Iterations 47
time step continuity errors : sum local = 1.84607e-12, global = 3.48708e-14, cumulative = -4.12748e-07
ExecutionTime = 22.95 s  ClockTime = 47 s

Time = 0.4997

Courant Number mean: 0.0118197 max: 0.0234074
smoothSolver:  Solving for Ux, Initial residual = 8.61482e-05, Final residual = 2.23116e-09, No Iterations 1
smoothSolver:  Solving for Uy, Initial residual = 0.000155119, Final residual = 4.61733e-09, No Iterations 1
DICPCG:  Solving for p, Initial residual = 0.000395735, Final residual = 1.87284e-05, No Iterations 9
time step continuity errors : sum local = 5.52635e-11, global = 4.75646e-12, cumulative = -4.12743e-07
DICPCG:  Solving for p, Initial residual = 1.88444e-05, Final residual = 8.08541e-07, No Iterations 28
time step continuity errors : sum local = 2.38587e-12, global = 6.72192e-14, cumulative = -4.12743e-07
ExecutionTime = 22.97 s  ClockTime = 47 s

Time = 0.4998

Courant Number mean: 0.0118198 max: 0.0234071
smoothSolver:  Solving for Ux, Initial residual = 8.61332e-05, Final residual = 2.23088e-09, No Iterations 1
smoothSolver:  Solving for Uy, Initial residual = 0.000155121, Final residual = 4.61772e-09, No Iterations 1
DICPCG:  Solving for p, Initial residual = 0.000373312, Final residual = 1.79761e-05, No Iterations 9
time step continuity errors : sum local = 5.3048e-11, global = 5.4223e-12, cumulative = -4.12738e-07
DICPCG:  Solving for p, Initial residual = 1.80934e-05, Final residual = 9.09304e-07, No Iterations 28
time step continuity errors : sum local = 2.68351e-12, global = 4.92888e-13, cumulative = -4.12737e-07
ExecutionTime = 22.97 s  ClockTime = 47 s

Time = 0.4999

Courant Number mean: 0.01182 max: 0.0234069
smoothSolver:  Solving for Ux, Initial residual = 8.61181e-05, Final residual = 2.23046e-09, No Iterations 1
smoothSolver:  Solving for Uy, Initial residual = 0.000155109, Final residual = 4.61791e-09, No Iterations 1
DICPCG:  Solving for p, Initial residual = 0.000391375, Final residual = 1.79651e-05, No Iterations 9
time step continuity errors : sum local = 5.30224e-11, global = 6.22708e-12, cumulative = -4.12731e-07
DICPCG:  Solving for p, Initial residual = 1.8112e-05, Final residual = 7.69062e-07, No Iterations 43
time step continuity errors : sum local = 2.26997e-12, global = 6.09753e-14, cumulative = -4.12731e-07
ExecutionTime = 22.97 s  ClockTime = 47 s

Time = 0.5

Courant Number mean: 0.0118201 max: 0.0234067
smoothSolver:  Solving for Ux, Initial residual = 8.60977e-05, Final residual = 2.22972e-09, No Iterations 1
smoothSolver:  Solving for Uy, Initial residual = 0.000155104, Final residual = 4.61845e-09, No Iterations 1
DICPCG:  Solving for p, Initial residual = 0.000463089, Final residual = 2.25785e-05, No Iterations 8
time step continuity errors : sum local = 6.66418e-11, global = 3.48104e-12, cumulative = -4.12727e-07
DICPCG:  Solving for p, Initial residual = 2.26818e-05, Final residual = 7.16353e-07, No Iterations 29
time step continuity errors : sum local = 2.11417e-12, global = 1.07923e-13, cumulative = -4.12727e-07
ExecutionTime = 22.99 s  ClockTime = 48 s

End

